examples/Custom_controls_example/DSSfiles/Green_dss/Lines.dss
New Line.UG_BS4839-1_07570$ND30594076_07570 bus1=BS4839-1_07570.1.2.3 bus2=ND30594076_07570.1.2.3 length=86.258397 units=m linecode=UG-CLP_3C_1/0_5/12/16KV phases=3 enabled=True
New Line.OH_451201E_07570$4699730E_07570 bus1=451201E_07570.1.2.3 bus2=4699730E_07570.1.2.3 length=533.704783 units=m linecode=OH-CU_3C_#6 phases=3 enabled=True
New Line.OH_1813457E_07570$2024846E_07570 bus1=1813457E_07570.1.2.3 bus2=2024846E_07570.1.2.3 length=27.431999 units=m linecode=OH-ACSR_3C_#4 phases=3 enabled=True
New Line.UG_4416894E_07570$P5618240-1_07570 bus1=4416894E_07570.1.2.3 bus2=P5618240-1_07570.1.2.3 length=90.220797 units=m linecode=UG-CLP_3C_#2_5/12/16KV phases=3 enabled=True
New Line.OH_ND30593618_07570$4362821E_07570 bus1=ND30593618_07570.1.2.3 bus2=4362821E_07570.1.2.3 length=97.231197 units=m linecode=OH-ACSR_3C_#4 phases=3 enabled=True
New Line.OH_1123341E_07570$ND30593049_07570 bus1=1123341E_07570.1.2.3 bus2=ND30593049_07570.1.2.3 length=84.734397 units=m linecode=OH-CU_3C_#6 phases=3 enabled=True
New Line.UG_138566718_07570$PDRAR3129-D_0757 bus1=138566718_07570.1.2.3 bus2=PDRAR3129-D_07570_1.1.2.3 length=7.620000 units=m linecode=UG-BUS phases=3 enabled=True
New Line.OH_ND31712439_07570$1851663E_07570 bus1=ND31712439_07570.1.2.3 bus2=1851663E_07570.1.2.3 length=104.241597 units=m linecode=OH-ACSR_3C_336 phases=3 enabled=True
New Line.OH_1406796E_07570$4130912E_07570 bus1=1406796E_07570.1.2.3 bus2=4130912E_07570.1.2.3 length=22.859999 units=m linecode=OH-ACSR_3C_#4 phases=3 enabled=True
New Line.UG_2270078EP1_07570_1$140212299_075 bus1=2270078EP1_07570_1.1.2.3 bus2=140212299_07570_1.1.2.3 length=385.876788 units=m linecode=UG-JCN_3C_#2_5/12/16KV phases=3 enabled=True
New Line.OH_ND30616331_07570$396520E_07570 bus1=ND30616331_07570.1.2.3 bus2=396520E_07570.1.2.3 length=12.496800 units=m linecode=OH-CU_3C_#6 phases=3 enabled=True
New Line.OH_ND31713092_07570$1813486E_07570 bus1=ND31713092_07570.1.2.3 bus2=1813486E_07570.1.2.3 length=452.323186 units=m linecode=OH-ACSR_3C_336 phases=3 enabled=True
New Line.OH_ND102936343_07570$4368667E_07570 bus1=ND102936343_07570.1.2.3 bus2=4368667E_07570.1.2.3 length=59.740798 units=m linecode=OH-ACSR_3C_336 phases=3 enabled=True
New Line.UG_4130804E_07570_1$P5393567-1_0757 bus1=4130804E_07570_1.1.2.3 bus2=P5393567-1_07570.1.2.3 length=55.473598 units=m linecode=UG-CLP_3C_#2_5/12/16KV phases=3 enabled=True
New Line.OH_396528E_07570$4780491E_07570 bus1=396528E_07570.1.2.3 bus2=4780491E_07570.1.2.3 length=57.911998 units=m linecode=OH-ACSR_3C_336 phases=3 enabled=True
New Line.UG_ND30617383_07570$P5504304-1_0757 bus1=ND30617383_07570.1.2.3 bus2=P5504304-1_07570.1.2.3 length=353.872789 units=m linecode=UG-CLP_3C_#2_5/12/16KV phases=3 enabled=True
New Line.OH_4540498E_07570$4354829E_07570_1 bus1=4540498E_07570.1.2.3 bus2=4354829E_07570_1.1.2.3 length=36.575999 units=m linecode=OH-ACSR_3C_336 phases=3 enabled=True
New Line.OH_4210436E_07570$ND30594524_07570 bus1=4210436E_07570.1.2.3 bus2=ND30594524_07570.1.2.3 length=10.363200 units=m linecode=OH-ACSR_3C_336 phases=3 enabled=True
New Line.OH_ND31715376_07570$138566718_07570 bus1=ND31715376_07570.1.2.3 bus2=138566718_07570.1.2.3 length=104.851197 units=m linecode=OH-ACSR_3C_336 phases=3 enabled=True
New Line.OH_4363394E_07570$4540963E_07570 bus1=4363394E_07570.1.2.3 bus2=4540963E_07570.1.2.3 length=65.531998 units=m linecode=OH-CU_3C_1/0 phases=3 enabled=True
New Line.OH_ND31715376_07570$PS0079_07570 bus1=ND31715376_07570.1.2.3 bus2=PS0079_07570.1.2.3 length=459.638385 units=m linecode=OH-ACSR_3C_336 phases=3 enabled=True
New Line.OH_451697ET1_07570$BF10048_07570 bus1=451697ET1_07570.1.2.3 bus2=BF10048_07570.1.2.3 length=31.699199 units=m linecode=OH-CU_3C_#6 phases=3 enabled=True
New Line.OH_BF10048_07570_1$ND30594455_07570 bus1=BF10048_07570_1.1.2.3 bus2=ND30594455_07570.1.2.3 length=103.631997 units=m linecode=OH-CU_3C_#6 phases=3 enabled=True
New Line.OH_ND30616291_07570$4099194E_07570 bus1=ND30616291_07570.1.2.3 bus2=4099194E_07570.1.2.3 length=323.392790 units=m linecode=OH-ACSR_3C_336 phases=3 enabled=True
New Line.UG_RAR3129_07570$PDRAR3129-B_07570 bus1=RAR3129_07570.1.2.3 bus2=PDRAR3129-B_07570.1.2.3 length=10.363200 units=m linecode=UG-BUS phases=3 enabled=True
New Line.OH_392069E_07570$BF10041_07570 bus1=392069E_07570.1.2.3 bus2=BF10041_07570.1.2.3 length=1.828800 units=m linecode=OH-CU_3C_#6 phases=3 enabled=True
New Line.OH_4368663E_07570$1406609E_07570 bus1=4368663E_07570.1.2.3 bus2=1406609E_07570.1.2.3 length=52.120798 units=m linecode=OH-CU_3C_#6 phases=3 enabled=True
New Line.OH_1340496E_07570$4276440E_07570 bus1=1340496E_07570.1.2.3 bus2=4276440E_07570.1.2.3 length=89.001597 units=m linecode=OH-CU_3C_#6 phases=3 enabled=True
New Line.OH_ND30594455_07570$4067585E_07570 bus1=ND30594455_07570.1.2.3 bus2=4067585E_07570.1.2.3 length=67.055998 units=m linecode=OH-CU_3C_#2 phases=3 enabled=True
New Line.OH_703684E_07570$4700793E_07570 bus1=703684E_07570.1.2.3 bus2=4700793E_07570.1.2.3 length=73.151998 units=m linecode=OH-ACSR_3C_#4 phases=3 enabled=True
New Line.OH_ND30616984_07570$1807630E_07570 bus1=ND30616984_07570.1.2.3 bus2=1807630E_07570.1.2.3 length=114.299996 units=m linecode=OH-ACSR_3C_336 phases=3 enabled=True
New Line.OH_ND30593814_07570$4362829E_07570 bus1=ND30593814_07570.1.2.3 bus2=4362829E_07570.1.2.3 length=46.939198 units=m linecode=OH-CU_3C_#6 phases=3 enabled=True
New Line.OH_4354805E_07570$4099100E_07570 bus1=4354805E_07570.1.2.3 bus2=4099100E_07570.1.2.3 length=82.905597 units=m linecode=OH-CU_3C_1/0 phases=3 enabled=True
New Line.OH_4552976E_07570$2024837E_07570 bus1=4552976E_07570.1.2.3 bus2=2024837E_07570.1.2.3 length=107.594397 units=m linecode=OH-ACSR_3C_#4 phases=3 enabled=True
New Line.OH_ND30594611_07570$392078E_07570 bus1=ND30594611_07570.1.2.3 bus2=392078E_07570.1.2.3 length=244.754392 units=m linecode=OH-ACSR_3C_#4 phases=3 enabled=True
New Line.OH_ND31713291_07570$ND31713292_0757 bus1=ND31713291_07570.1.2.3 bus2=ND31713292_07570.1.2.3 length=611.123980 units=m linecode=OH-ACSR_3C_336 phases=3 enabled=True
New Line.OH_ND30593215_07570$PS1361_07570 bus1=ND30593215_07570.1.2.3 bus2=PS1361_07570.1.2.3 length=104.241597 units=m linecode=OH-ACSR_3C_336 phases=3 enabled=True
New Line.OH_4226919ET_07570$4695030E_07570 bus1=4226919ET_07570.1.2.3 bus2=4695030E_07570.1.2.3 length=68.275198 units=m linecode=OH-ACSR_3C_#4 phases=3 enabled=True
New Line.OH_ND30593791_07570$PS0218_07570_1 bus1=ND30593791_07570.1.2.3 bus2=PS0218_07570_1.1.2.3 length=250.545592 units=m linecode=OH-CU_3C_#6 phases=3 enabled=True
New Line.OH_2229829E_07570$4097786E_07570 bus1=2229829E_07570.1.2.3 bus2=4097786E_07570.1.2.3 length=264.261592 units=m linecode=OH-ACSR_3C_#4 phases=3 enabled=True
New Line.OH_1813481E_07570$4477596EP_07570 bus1=1813481E_07570.1.2.3 bus2=4477596EP_07570.1.2.3 length=153.009595 units=m linecode=OH-ACSR_3C_#4 phases=3 enabled=True
New Line.OH_4368659E_07570$PS3196_07570 bus1=4368659E_07570.1.2.3 bus2=PS3196_07570.1.2.3 length=113.080796 units=m linecode=OH-ACSR_3C_336 phases=3 enabled=True
New Line.OH_ND30593229_07570$4214689E_07570 bus1=ND30593229_07570.1.2.3 bus2=4214689E_07570.1.2.3 length=146.913595 units=m linecode=OH-CU_3C_#6 phases=3 enabled=True
New Line.UG_ND30593632_07570$30591990_07570_ bus1=ND30593632_07570.1.2.3 bus2=30591990_07570_1.1.2.3 length=126.796796 units=m linecode=UG-CLP_3C_1/0_5/12/16KV phases=3 enabled=True
New Line.OH_ND30594713_07570$4368670E_07570 bus1=ND30594713_07570.1.2.3 bus2=4368670E_07570.1.2.3 length=342.595189 units=m linecode=OH-ACSR_3C_336 phases=3 enabled=True
New Line.OH_837903E_07570$4340701E_07570 bus1=837903E_07570.1.2.3 bus2=4340701E_07570.1.2.3 length=31.089599 units=m linecode=OH-ACSR_3C_336 phases=3 enabled=True
New Line.OH_BF10806_07570_1$4699736E_07570 bus1=BF10806_07570_1.1.2.3 bus2=4699736E_07570.1.2.3 length=114.604796 units=m linecode=OH-ACSR_3C_#4 phases=3 enabled=True
New Line.OH_ND30594596_07570$4002234E_07570 bus1=ND30594596_07570.1.2.3 bus2=4002234E_07570.1.2.3 length=72.542398 units=m linecode=OH-CU_3C_#2 phases=3 enabled=True
New Line.OH_PS0159_07570$4167349E_07570 bus1=PS0159_07570.1.2.3 bus2=4167349E_07570.1.2.3 length=640.384780 units=m linecode=OH-ACSR_3C_336 phases=3 enabled=True
New Line.OH_4632241E_07570$ND30592923_07570 bus1=4632241E_07570.1.2.3 bus2=ND30592923_07570.1.2.3 length=93.878397 units=m linecode=OH-ACSR_3C_#4 phases=3 enabled=True
New Line.OH_ND31712560_07570$RCS2423_07570 bus1=ND31712560_07570.1.2.3 bus2=RCS2423_07570.1.2.3 length=146.303995 units=m linecode=OH-ACSR_3C_336 phases=3 enabled=True
New Line.OH_808076E_07570$ND31715376_07570 bus1=808076E_07570.1.2.3 bus2=ND31715376_07570.1.2.3 length=64.007998 units=m linecode=OH-ACSR_3C_336 phases=3 enabled=True
New Line.OH_ND31712919_07570$4699973E_07570 bus1=ND31712919_07570.1.2.3 bus2=4699973E_07570.1.2.3 length=528.827983 units=m linecode=OH-CU_3C_#6 phases=3 enabled=True
New Line.OH_ND31713044_07570$4354639E_07570 bus1=ND31713044_07570.1.2.3 bus2=4354639E_07570.1.2.3 length=39.623999 units=m linecode=OH-CU_3C_#6 phases=3 enabled=True
New Line.OH_1813456E_07570$ND31712560_07570 bus1=1813456E_07570.1.2.3 bus2=ND31712560_07570.1.2.3 length=198.729594 units=m linecode=OH-ACSR_3C_336 phases=3 enabled=True
New Line.UG_ND30594076_07570$B5372741-1_0757 bus1=ND30594076_07570.1.2.3 bus2=B5372741-1_07570.1.2.3 length=113.690396 units=m linecode=UG-CLP_3C_1/0_5/12/16KV phases=3 enabled=True
New Line.OH_410193E_07570$BF10038_07570 bus1=410193E_07570.1.2.3 bus2=BF10038_07570.1.2.3 length=33.223199 units=m linecode=OH-CU_3C_#6 phases=3 enabled=True
New Line.OH_ND31714829_07570$4289368E_07570 bus1=ND31714829_07570.1.2.3 bus2=4289368E_07570.1.2.3 length=58.216798 units=m linecode=OH-CU_3C_#6 phases=3 enabled=True
New Line.OH_1299702E_07570$4669184E_07570 bus1=1299702E_07570.1.2.3 bus2=4669184E_07570.1.2.3 length=89.001597 units=m linecode=OH-ACSR_3C_#4 phases=3 enabled=True
New Line.UG_4075856E_07570_1$BS4839-1_07570_ bus1=4075856E_07570_1.1.2.3 bus2=BS4839-1_07570_1.1.2.3 length=104.851197 units=m linecode=UG-CLP_3C_1/0_5/12/16KV phases=3 enabled=True
New Line.OH_4772513E_07570$2286962E_07570 bus1=4772513E_07570.1.2.3 bus2=2286962E_07570.1.2.3 length=117.957596 units=m linecode=OH-ACSR_3C_336 phases=3 enabled=True
New Line.OH_X15001E_07570$ND30593880_07570 bus1=X15001E_07570.1.2.3 bus2=ND30593880_07570.1.2.3 length=106.070397 units=m linecode=OH-ACSR_3C_1/0 phases=3 enabled=True
New Line.OH_ND31714460_07570$ND31714474_0757 bus1=ND31714460_07570.1.2.3 bus2=ND31714474_07570.1.2.3 length=62.483998 units=m linecode=OH-CU_3C_#2 phases=3 enabled=True
New Line.OH_4696734E_07570$ND30593769_07570 bus1=4696734E_07570.1.2.3 bus2=ND30593769_07570.1.2.3 length=15.849599 units=m linecode=OH-ACSR_3C_#4 phases=3 enabled=True
New Line.OH_ND30616251_07570$ND30593314_0757 bus1=ND30616251_07570.1.2.3 bus2=ND30593314_07570.1.2.3 length=10.058400 units=m linecode=OH-CU_3C_#6 phases=3 enabled=True
New Line.OH_ND31712241_07570$ND31713986_0757 bus1=ND31712241_07570.1.2.3 bus2=ND31713986_07570.1.2.3 length=113.995196 units=m linecode=OH-CU_3C_1/0 phases=3 enabled=True
New Line.OH_4180602E_07570$1982285E_07570 bus1=4180602E_07570.1.2.3 bus2=1982285E_07570.1.2.3 length=373.989588 units=m linecode=OH-CU_3C_#6 phases=3 enabled=True
New Line.OH_1636824E_07570$1636825E_07570 bus1=1636824E_07570.1.2.3 bus2=1636825E_07570.1.2.3 length=40.843199 units=m linecode=OH-ACSR_3C_#4 phases=3 enabled=True
New Line.OH_4699973E_07570$ND31712419_07570 bus1=4699973E_07570.1.2.3 bus2=ND31712419_07570.1.2.3 length=420.319187 units=m linecode=OH-CU_3C_#6 phases=3 enabled=True
New Line.OH_ND30593449_07570$4122963E_07570_ bus1=ND30593449_07570.1.2.3 bus2=4122963E_07570_1.1.2.3 length=4.267200 units=m linecode=OH-CU_3C_#6 phases=3 enabled=True
New Line.OH_591841E_07570$ND31712846_07570 bus1=591841E_07570.1.2.3 bus2=ND31712846_07570.1.2.3 length=415.442387 units=m linecode=OH-ACSR_3C_336 phases=3 enabled=True
New Line.OH_ND30593483_07570$ND30616427_0757 bus1=ND30593483_07570.1.2.3 bus2=ND30616427_07570.1.2.3 length=331.012789 units=m linecode=OH-ACSR_3C_336 phases=3 enabled=True
New Line.OH_ND30593769_07570$ND30593770_0757 bus1=ND30593769_07570.1.2.3 bus2=ND30593770_07570.1.2.3 length=240.791992 units=m linecode=OH-ACSR_3C_#4 phases=3 enabled=True
New Line.OH_4659047E_07570$1763673E_07570 bus1=4659047E_07570.1.2.3 bus2=1763673E_07570.1.2.3 length=64.007998 units=m linecode=OH-ACSR_3C_336 phases=3 enabled=True
New Line.OH_ND30594054_07570$X15001E_07570 bus1=ND30594054_07570.1.2.3 bus2=X15001E_07570.1.2.3 length=161.239195 units=m linecode=OH-ACSR_3C_1/0 phases=3 enabled=True
New Line.OH_4669184E_07570$1982110E_07570 bus1=4669184E_07570.1.2.3 bus2=1982110E_07570.1.2.3 length=204.520793 units=m linecode=OH-ACSR_3C_#4 phases=3 enabled=True
New Line.OH_ND31712439_07570$4772512E_07570 bus1=ND31712439_07570.1.2.3 bus2=4772512E_07570.1.2.3 length=456.285585 units=m linecode=OH-ACSR_3C_336 phases=3 enabled=True
New Line.OH_1943316E_07570$808076E_07570 bus1=1943316E_07570.1.2.3 bus2=808076E_07570.1.2.3 length=53.339998 units=m linecode=OH-ACSR_3C_336 phases=3 enabled=True
New Line.OH_1406528E_07570$4368380E_07570 bus1=1406528E_07570.1.2.3 bus2=4368380E_07570.1.2.3 length=59.435998 units=m linecode=OH-ACSR_3C_#4 phases=3 enabled=True
New Line.OH_BF10344_07570$ND31714828_07570 bus1=BF10344_07570.1.2.3 bus2=ND31714828_07570.1.2.3 length=14.935200 units=m linecode=OH-CU_3C_#6 phases=3 enabled=True
New Line.OH_1475350E_07570$ND30594295_07570 bus1=1475350E_07570.1.2.3 bus2=ND30594295_07570.1.2.3 length=17.678399 units=m linecode=OH-ACSR_3C_1/0 phases=3 enabled=True
New Line.OH_ND31715376_07570$PS1357_07570 bus1=ND31715376_07570.1.2.3 bus2=PS1357_07570.1.2.3 length=53.644798 units=m linecode=OH-ACSR_3C_336 phases=3 enabled=True
New Line.OH_BF10043_07570$1340496E_07570 bus1=BF10043_07570.1.2.3 bus2=1340496E_07570.1.2.3 length=21.335999 units=m linecode=OH-ACSR_3C_336 phases=3 enabled=True
New Line.OH_4167349E_07570$2272786E_07570 bus1=4167349E_07570.1.2.3 bus2=2272786E_07570.1.2.3 length=114.604796 units=m linecode=OH-ACSR_3C_336 phases=3 enabled=True
New Line.UG_4416893E_07570$ND30617383_07570 bus1=4416893E_07570.1.2.3 bus2=ND30617383_07570.1.2.3 length=185.927994 units=m linecode=UG-CLP_3C_#2_5/12/16KV phases=3 enabled=True
New Line.OH_409265E_07570$546390E_07570 bus1=409265E_07570.1.2.3 bus2=546390E_07570.1.2.3 length=487.375184 units=m linecode=OH-CU_3C_#6 phases=3 enabled=True
New Line.OH_4067585E_07570$4075713E_07570 bus1=4067585E_07570.1.2.3 bus2=4075713E_07570.1.2.3 length=352.043989 units=m linecode=OH-CU_3C_#2 phases=3 enabled=True
New Line.OH_4368160E_07570$4026373E_07570 bus1=4368160E_07570.1.2.3 bus2=4026373E_07570.1.2.3 length=199.948794 units=m linecode=OH-CU_3C_#6 phases=3 enabled=True
New Line.UG_ND30593998_07570$30592000_07570 bus1=ND30593998_07570.1.2.3 bus2=30592000_07570.1.2.3 length=94.183197 units=m linecode=UG-CLP_3C_1/0_5/12/16KV phases=3 enabled=True
New Line.OH_4093TT1_07570_1$4363729E_07570 bus1=4093TT1_07570_1.1.2.3 bus2=4363729E_07570.1.2.3 length=126.491996 units=m linecode=OH-ACSR_3C_#4 phases=3 enabled=True
New Line.UG_4167122E_07570$ND30593301_07570 bus1=4167122E_07570.1.2.3 bus2=ND30593301_07570.1.2.3 length=179.527194 units=m linecode=UG-CLP_3C_1/0_5/12/16KV phases=3 enabled=True
New Line.OH_4684857E_07570$PS0159_07570_1 bus1=4684857E_07570.1.2.3 bus2=PS0159_07570_1.1.2.3 length=3.657600 units=m linecode=OH-ACSR_3C_336 phases=3 enabled=True
New Line.OH_ND30592923_07570$1636824E_07570 bus1=ND30592923_07570.1.2.3 bus2=1636824E_07570.1.2.3 length=88.391997 units=m linecode=OH-ACSR_3C_#4 phases=3 enabled=True
New Line.OH_4695030E_07570$4274192E_07570 bus1=4695030E_07570.1.2.3 bus2=4274192E_07570.1.2.3 length=77.723998 units=m linecode=OH-ACSR_3C_#4 phases=3 enabled=True
New Line.OH_4700793E_07570$4632239E_07570 bus1=4700793E_07570.1.2.3 bus2=4632239E_07570.1.2.3 length=316.382390 units=m linecode=OH-ACSR_3C_#4 phases=3 enabled=True
New Line.OH_ND30593200_07570$BF10809_07570_1 bus1=ND30593200_07570.1.2.3 bus2=BF10809_07570_1.1.2.3 length=23.469599 units=m linecode=OH-ACSR_3C_1/0 phases=3 enabled=True
New Line.OH_ND30593472_07570$4368663E_07570 bus1=ND30593472_07570.1.2.3 bus2=4368663E_07570.1.2.3 length=88.391997 units=m linecode=OH-CU_3C_#6 phases=3 enabled=True
New Line.OH_ND30593770_07570$2212593E_07570 bus1=ND30593770_07570.1.2.3 bus2=2212593E_07570.1.2.3 length=268.833591 units=m linecode=OH-ACSR_3C_#4 phases=3 enabled=True
New Line.OH_1982110E_07570$1982290E_07570 bus1=1982110E_07570.1.2.3 bus2=1982290E_07570.1.2.3 length=103.327197 units=m linecode=OH-ACSR_3C_#4 phases=3 enabled=True
New Line.OH_ND30594618_07570$PS1364_07570_1 bus1=ND30594618_07570.1.2.3 bus2=PS1364_07570_1.1.2.3 length=160.324795 units=m linecode=OH-CU_3C_#6 phases=3 enabled=True
New Line.OH_4026131E_07570$1223308E_07570 bus1=4026131E_07570.1.2.3 bus2=1223308E_07570.1.2.3 length=33.832799 units=m linecode=OH-CU_3C_#6 phases=3 enabled=True
New Line.OH_ND30593049_07570$ND30593472_0757 bus1=ND30593049_07570.1.2.3 bus2=ND30593472_07570.1.2.3 length=188.366394 units=m linecode=OH-CU_3C_#6 phases=3 enabled=True
New Line.OH_601429E_07570_1$4552982E_07570 bus1=601429E_07570_1.1.2.3 bus2=4552982E_07570.1.2.3 length=28.955999 units=m linecode=OH-ACSR_3C_#4 phases=3 enabled=True
New Line.OH_4693T_07570$ND31712369_07570 bus1=4693T_07570.1.2.3 bus2=ND31712369_07570.1.2.3 length=45.719999 units=m linecode=OH-ACSR_3C_336 phases=3 enabled=True
New Line.OH_2286962E_07570$ND30616291_07570 bus1=2286962E_07570.1.2.3 bus2=ND30616291_07570.1.2.3 length=105.460797 units=m linecode=OH-ACSR_3C_336 phases=3 enabled=True
New Line.OH_1123342E_07570$ND30593449_07570 bus1=1123342E_07570.1.2.3 bus2=ND30593449_07570.1.2.3 length=263.956792 units=m linecode=OH-CU_3C_#6 phases=3 enabled=True
New Line.UG_4122963E_07570$ND30594420_07570 bus1=4122963E_07570.1.2.3 bus2=ND30594420_07570.1.2.3 length=59.740798 units=m linecode=UG-CLP_3C_#2_5/12/16KV phases=3 enabled=True
New Line.OH_396520E_07570_1$4099096E_07570 bus1=396520E_07570_1.1.2.3 bus2=4099096E_07570.1.2.3 length=96.926397 units=m linecode=OH-CU_3C_#6 phases=3 enabled=True
New Line.OH_ND30593482_07570$ND30593483_0757 bus1=ND30593482_07570.1.2.3 bus2=ND30593483_07570.1.2.3 length=318.211190 units=m linecode=OH-ACSR_3C_336 phases=3 enabled=True
New Line.OH_ND31712919_07570$ND150429465_075 bus1=ND31712919_07570.1.2.3 bus2=ND150429465_07570.1.2.3 length=44.500799 units=m linecode=OH-ACSR_3C_336 phases=3 enabled=True
New Line.OH_1475768E_07570$BF10047_07570 bus1=1475768E_07570.1.2.3 bus2=BF10047_07570.1.2.3 length=9.448800 units=m linecode=OH-ACSR_3C_1/0 phases=3 enabled=True
New Line.OH_ND30593617_07570$4632244E_07570 bus1=ND30593617_07570.1.2.3 bus2=4632244E_07570.1.2.3 length=42.976799 units=m linecode=OH-ACSR_3C_#4 phases=3 enabled=True
New Line.OH_PS1357_07570_1$ND31696671_07570 bus1=PS1357_07570_1.1.2.3 bus2=ND31696671_07570.1.2.3 length=174.040794 units=m linecode=OH-ACSR_3C_336 phases=3 enabled=True
New Line.OH_4553240E_07570$ND31712439_07570 bus1=4553240E_07570.1.2.3 bus2=ND31712439_07570.1.2.3 length=55.778398 units=m linecode=OH-ACSR_3C_336 phases=3 enabled=True
New Line.OH_4661656E_07570$1406528E_07570 bus1=4661656E_07570.1.2.3 bus2=1406528E_07570.1.2.3 length=131.673596 units=m linecode=OH-ACSR_3C_#4 phases=3 enabled=True
New Line.OH_ND31712419_07570$2163006E_07570 bus1=ND31712419_07570.1.2.3 bus2=2163006E_07570.1.2.3 length=61.569598 units=m linecode=OH-CU_3C_1/0 phases=3 enabled=True
New Line.OH_BF10829_07570_1$4368661E_07570 bus1=BF10829_07570_1.1.2.3 bus2=4368661E_07570.1.2.3 length=13.411200 units=m linecode=OH-ACSR_3C_#4 phases=3 enabled=True
New Line.OH_2197942E_07570$4276446E_07570 bus1=2197942E_07570.1.2.3 bus2=4276446E_07570.1.2.3 length=86.563197 units=m linecode=OH-CU_3C_#6 phases=3 enabled=True
New Line.OH_4659046E_07570$4693T_07570 bus1=4659046E_07570.1.2.3 bus2=4693T_07570.1.2.3 length=128.930396 units=m linecode=OH-ACSR_3C_336 phases=3 enabled=True
New Line.OH_481736E_07570$2295944E_07570 bus1=481736E_07570.1.2.3 bus2=2295944E_07570.1.2.3 length=170.383195 units=m linecode=OH-CU_3C_#6 phases=3 enabled=True
New Line.OH_ND30594119_07570$4067277E_07570 bus1=ND30594119_07570.1.2.3 bus2=4067277E_07570.1.2.3 length=209.702393 units=m linecode=OH-ACSR_3C_#4 phases=3 enabled=True
New Line.OH_4552982E_07570$4661652E_07570 bus1=4552982E_07570.1.2.3 bus2=4661652E_07570.1.2.3 length=32.918399 units=m linecode=OH-ACSR_3C_#4 phases=3 enabled=True
New Line.OH_4553236E_07570$4659046E_07570 bus1=4553236E_07570.1.2.3 bus2=4659046E_07570.1.2.3 length=171.602395 units=m linecode=OH-ACSR_3C_336 phases=3 enabled=True
New Line.UG_1466999E_07570_1$P5403124-2_0757 bus1=1466999E_07570_1.1.2 bus2=P5403124-2_07570.1.2 length=299.923190 units=m linecode=UG-CLP_2C_1/0_5/12/16KV phases=2 enabled=True
New Line.OH_4026373E_07570$ND30616404_07570 bus1=4026373E_07570.1.2.3 bus2=ND30616404_07570.1.2.3 length=219.151193 units=m linecode=OH-CU_3C_#6 phases=3 enabled=True
New Line.OH_4699736E_07570$4364055E_07570 bus1=4699736E_07570.1.2.3 bus2=4364055E_07570.1.2.3 length=549.859182 units=m linecode=OH-ACSR_3C_#4 phases=3 enabled=True
New Line.OH_837633E_07570$ND30594008_07570 bus1=837633E_07570.1.2.3 bus2=ND30594008_07570.1.2.3 length=189.280794 units=m linecode=OH-CU_3C_#6 phases=3 enabled=True
New Line.OH_4477501E_07570$1254458E_07570 bus1=4477501E_07570.1.2.3 bus2=1254458E_07570.1.2.3 length=35.356799 units=m linecode=OH-ACSR_3C_336 phases=3 enabled=True
New Line.OH_ND31712419_07570$4552980E_07570 bus1=ND31712419_07570.1.2.3 bus2=4552980E_07570.1.2.3 length=15.240000 units=m linecode=OH-ACSR_3C_#4 phases=3 enabled=True
New Line.OH_2253642E_07570$2253647E_07570 bus1=2253642E_07570.1.2.3 bus2=2253647E_07570.1.2.3 length=98.145597 units=m linecode=OH-ACSR_3C_#4 phases=3 enabled=True
New Line.OH_ND30593881_07570$1475348E_07570 bus1=ND30593881_07570.1.2.3 bus2=1475348E_07570.1.2.3 length=80.467197 units=m linecode=OH-ACSR_3C_1/0 phases=3 enabled=True
New Line.OH_4001837E_07570$ND102936343_07570 bus1=4001837E_07570.1.2.3 bus2=ND102936343_07570.1.2.3 length=58.826398 units=m linecode=OH-ACSR_3C_336 phases=3 enabled=True
New Line.OH_ND31711600_07570$ND31714460_0757 bus1=ND31711600_07570.1.2.3 bus2=ND31714460_07570.1.2.3 length=55.168798 units=m linecode=OH-CU_3C_#2 phases=3 enabled=True
New Line.OH_4296072E_07570$1807862E_07570 bus1=4296072E_07570.1.2.3 bus2=1807862E_07570.1.2.3 length=49.072798 units=m linecode=OH-CU_3C_#6 phases=3 enabled=True
New Line.OH_ND30593984_07570$4250691E_07570 bus1=ND30593984_07570.1.2.3 bus2=4250691E_07570.1.2.3 length=21.335999 units=m linecode=OH-ACSR_3C_#4 phases=3 enabled=True
New Line.OH_ND30593738_07570$PS1360_07570_1 bus1=ND30593738_07570.1.2.3 bus2=PS1360_07570_1.1.2.3 length=291.998391 units=m linecode=OH-ACSR_3C_336 phases=3 enabled=True
New Line.OH_4362834E_07570$ND30594367_07570 bus1=4362834E_07570.1.2.3 bus2=ND30594367_07570.1.2.3 length=165.201595 units=m linecode=OH-ACSR_3C_336 phases=3 enabled=True
New Line.OH_PS3195_07570_1$ND30594171_07570 bus1=PS3195_07570_1.1.2.3 bus2=ND30594171_07570.1.2.3 length=53.035198 units=m linecode=OH-ACSR_3C_336 phases=3 enabled=True
New Line.OH_744583E_07570$4699954E_07570 bus1=744583E_07570.1.2.3 bus2=4699954E_07570.1.2.3 length=54.559198 units=m linecode=OH-CU_3C_#6 phases=3 enabled=True
New Line.OH_12546T_07570$ND30593215_07570 bus1=12546T_07570.1.2.3 bus2=ND30593215_07570.1.2.3 length=207.568793 units=m linecode=OH-ACSR_3C_336 phases=3 enabled=True
New Line.OH_ND30594312_07570$PS3195_07570 bus1=ND30594312_07570.1.2.3 bus2=PS3195_07570.1.2.3 length=157.276795 units=m linecode=OH-ACSR_3C_336 phases=3 enabled=True
New Line.OH_1636876E_07570$ND30616984_07570 bus1=1636876E_07570.1.2.3 bus2=ND30616984_07570.1.2.3 length=367.283988 units=m linecode=OH-ACSR_3C_336 phases=3 enabled=True
New Line.OH_546390E_07570$4026131E_07570 bus1=546390E_07570.1.2.3 bus2=4026131E_07570.1.2.3 length=35.661599 units=m linecode=OH-CU_3C_#6 phases=3 enabled=True
New Line.OH_ND30616370_07570$ND30594618_0757 bus1=ND30616370_07570.1.2.3 bus2=ND30594618_07570.1.2.3 length=45.110399 units=m linecode=OH-ACSR_3C_1/0 phases=3 enabled=True
New Line.OH_4274405E_07570$PS1358_07570 bus1=4274405E_07570.1.2.3 bus2=PS1358_07570.1.2.3 length=118.871996 units=m linecode=OH-ACSR_3C_336 phases=3 enabled=True
New Line.OH_ND30593738_07570$PS1362_07570 bus1=ND30593738_07570.1.2.3 bus2=PS1362_07570.1.2.3 length=94.183197 units=m linecode=OH-ACSR_3C_336 phases=3 enabled=True
New Line.OH_2438 bus1=ND102936343_07570.1.2.3 bus2=4368667E_07570_1.1.2.3 length=59.705273 units=m linecode=OH-ACSR_3C_336 phases=3 enabled=True
New Line.OH_ND30616404_07570$4214587E_07570 bus1=ND30616404_07570.1.2.3 bus2=4214587E_07570.1.2.3 length=47.853598 units=m linecode=OH-CU_3C_#6 phases=3 enabled=True
New Line.OH_ND31713149_07570$BF10806_07570 bus1=ND31713149_07570.1.2.3 bus2=BF10806_07570.1.2.3 length=30.175199 units=m linecode=OH-ACSR_3C_#4 phases=3 enabled=True
New Line.OH_ND31713092_07570$1813481E_07570_ bus1=ND31713092_07570.1.2.3 bus2=1813481E_07570_1.1.2.3 length=17.983199 units=m linecode=OH-ACSR_3C_#4 phases=3 enabled=True
New Line.OH_1982266E_07570_1$BF10035_07570_1 bus1=1982266E_07570_1.1.2.3 bus2=BF10035_07570_1.1.2.3 length=14.630400 units=m linecode=OH-ACSR_3C_#4 phases=3 enabled=True
New Line.OH_397389E_07570_1$974388E_07570 bus1=397389E_07570_1.1.2.3 bus2=974388E_07570.1.2.3 length=127.101596 units=m linecode=OH-CU_3C_2/0 phases=3 enabled=True
New Line.OH_ND31712369_07570$4093TT1_07570 bus1=ND31712369_07570.1.2.3 bus2=4093TT1_07570.1.2.3 length=26.517599 units=m linecode=OH-ACSR_3C_#4 phases=3 enabled=True
New Line.OH_4002234E_07570$4252648E_07570 bus1=4002234E_07570.1.2.3 bus2=4252648E_07570.1.2.3 length=273.710391 units=m linecode=OH-CU_3C_#2 phases=3 enabled=True
New Line.OH_1434526E_07570$4001837E_07570 bus1=1434526E_07570.1.2.3 bus2=4001837E_07570.1.2.3 length=53.339998 units=m linecode=OH-ACSR_3C_336 phases=3 enabled=True
New Line.OH_4354639E_07570$4505903E_07570 bus1=4354639E_07570.1.2.3 bus2=4505903E_07570.1.2.3 length=170.383195 units=m linecode=OH-CU_3C_#6 phases=3 enabled=True
New Line.OH_ND30593253_07570$BF10561_07570_1 bus1=ND30593253_07570.1.2.3 bus2=BF10561_07570_1.1.2.3 length=1.828800 units=m linecode=OH-ACSR_3C_#4 phases=3 enabled=True
New Line.OH_ND30592909_07570$4368161E_07570 bus1=ND30592909_07570.1.2.3 bus2=4368161E_07570.1.2.3 length=79.247997 units=m linecode=OH-CU_3C_#6 phases=3 enabled=True
New Line.OH_4276446E_07570$1434873E_07570 bus1=4276446E_07570.1.2.3 bus2=1434873E_07570.1.2.3 length=112.775996 units=m linecode=OH-CU_3C_#6 phases=3 enabled=True
New Line.OH_ND30593559_07570$4368160E_07570 bus1=ND30593559_07570.1.2.3 bus2=4368160E_07570.1.2.3 length=397.763987 units=m linecode=OH-CU_3C_#6 phases=3 enabled=True
New Line.OH_ND30616404_07570$1851917E_07570_ bus1=ND30616404_07570.1.2.3 bus2=1851917E_07570_1.1.2.3 length=5.486400 units=m linecode=OH-CU_3C_#6 phases=3 enabled=True
New Line.OH_PS1364_07570$744577E_07570 bus1=PS1364_07570.1.2.3 bus2=744577E_07570.1.2.3 length=46.329599 units=m linecode=OH-CU_3C_#6 phases=3 enabled=True
New Line.OH_ND31714474_07570$397389E_07570 bus1=ND31714474_07570.1.2.3 bus2=397389E_07570.1.2.3 length=56.997598 units=m linecode=OH-CU_3C_2/0 phases=3 enabled=True
New Line.OH_ND30593984_07570$ND30616503_0757 bus1=ND30593984_07570.1.2.3 bus2=ND30616503_07570.1.2.3 length=95.097597 units=m linecode=OH-CU_3C_#6 phases=3 enabled=True
New Line.UG_ND30593632_07570$P5456297-1_0757 bus1=ND30593632_07570.1.2 bus2=P5456297-1_07570.1.2 length=173.735994 units=m linecode=UG-CLP_3C_1/0_5/12/16KV phases=2 enabled=True
New Line.OH_4552980E_07570_1$4661656E_07570 bus1=4552980E_07570_1.1.2.3 bus2=4661656E_07570.1.2.3 length=74.371198 units=m linecode=OH-ACSR_3C_#4 phases=3 enabled=True
New Line.OH_1254458E_07570$4316552ET_07570 bus1=1254458E_07570.1.2.3 bus2=4316552ET_07570.1.2.3 length=39.319199 units=m linecode=OH-ACSR_3C_336 phases=3 enabled=True
New Line.OH_2163006E_07570$4363394E_07570 bus1=2163006E_07570.1.2.3 bus2=4363394E_07570.1.2.3 length=56.083198 units=m linecode=OH-CU_3C_1/0 phases=3 enabled=True
New Line.OH_4694481E_07570$4477301E_07570 bus1=4694481E_07570.1.2.3 bus2=4477301E_07570.1.2.3 length=70.713598 units=m linecode=OH-CU_3C_#6 phases=3 enabled=True
New Line.OH_4505903E_07570$638022E_07570 bus1=4505903E_07570.1.2.3 bus2=638022E_07570.1.2.3 length=71.627998 units=m linecode=OH-CU_3C_#6 phases=3 enabled=True
New Line.OH_ND144063720_07570$4251734E_07570 bus1=ND144063720_07570.1.2.3 bus2=4251734E_07570.1.2.3 length=468.782385 units=m linecode=OH-ACSR_3C_336 phases=3 enabled=True
New Line.OH_4699730E_07570$ND30593372_07570 bus1=4699730E_07570.1.2.3 bus2=ND30593372_07570.1.2.3 length=394.411187 units=m linecode=OH-CU_3C_#6 phases=3 enabled=True
New Line.OH_ND30594171_07570$4553233E_07570 bus1=ND30594171_07570.1.2.3 bus2=4553233E_07570.1.2.3 length=90.525597 units=m linecode=OH-ACSR_3C_336 phases=3 enabled=True
New Line.OH_ND31712439_07570$BF10043_07570_1 bus1=ND31712439_07570.1.2.3 bus2=BF10043_07570_1.1.2.3 length=25.298399 units=m linecode=OH-ACSR_3C_336 phases=3 enabled=True
New Line.UG_ND30594420_07570$P5393566-1_0757 bus1=ND30594420_07570.1.2.3 bus2=P5393566-1_07570.1.2.3 length=59.435998 units=m linecode=UG-CLP_3C_#2_5/12/16KV phases=3 enabled=True
New Line.OH_ND31696671_07570$458811E_07570 bus1=ND31696671_07570.1.2.3 bus2=458811E_07570.1.2.3 length=65.227198 units=m linecode=OH-CU_3C_#6 phases=3 enabled=True
New Line.OH_ND30593200_07570$ND106869205_075 bus1=ND30593200_07570.1.2.3 bus2=ND106869205_07570.1.2.3 length=223.723193 units=m linecode=OH-ACSR_3C_336 phases=3 enabled=True
New Line.OH_4587530E_07570$4540721E_07570 bus1=4587530E_07570.1.2.3 bus2=4540721E_07570.1.2.3 length=89.915997 units=m linecode=OH-CU_3C_#6 phases=3 enabled=True
New Line.OH_ND30594119_07570$4553230E_07570 bus1=ND30594119_07570.1.2.3 bus2=4553230E_07570.1.2.3 length=94.183197 units=m linecode=OH-ACSR_3C_#4 phases=3 enabled=True
New Line.OH_2331624E_07570$ND30594642_07570 bus1=2331624E_07570.1.2.3 bus2=ND30594642_07570.1.2.3 length=360.578388 units=m linecode=OH-CU_3C_#6 phases=3 enabled=True
New Line.OH_ND31712846_07570$ND31713082_0757 bus1=ND31712846_07570.1.2.3 bus2=ND31713082_07570.1.2.3 length=162.763195 units=m linecode=OH-ACSR_3C_336 phases=3 enabled=True
New Line.OH_ND30594082_07570$766011E_07570 bus1=ND30594082_07570.1.2.3 bus2=766011E_07570.1.2.3 length=373.989588 units=m linecode=OH-ACSR_3C_336 phases=3 enabled=True
New Line.OH_4214587E_07570$ND30593565_07570 bus1=4214587E_07570.1.2.3 bus2=ND30593565_07570.1.2.3 length=142.951195 units=m linecode=OH-CU_3C_#6 phases=3 enabled=True
New Line.OH_2288847E_07570$2288841E_07570 bus1=2288847E_07570.1.2.3 bus2=2288841E_07570.1.2.3 length=1026.566367 units=m linecode=OH-ACSR_3C_#4 phases=3 enabled=True
New Line.OH_4368667E_07570_1$4368668E_07570 bus1=4368667E_07570_1.1.2.3 bus2=4368668E_07570.1.2.3 length=46.329599 units=m linecode=OH-ACSR_3C_336 phases=3 enabled=True
New Line.OH_ND30593372_07570$4520469E_07570 bus1=ND30593372_07570.1.2.3 bus2=4520469E_07570.1.2.3 length=408.127187 units=m linecode=OH-CU_3C_#6 phases=3 enabled=True
New Line.OH_ND30594642_07570$2197942E_07570 bus1=ND30594642_07570.1.2.3 bus2=2197942E_07570.1.2.3 length=95.402397 units=m linecode=OH-CU_3C_#6 phases=3 enabled=True
New Line.UG_30592000_07570_1$P5411968-1_0757 bus1=30592000_07570_1.1.2.3 bus2=P5411968-1_07570.1.2.3 length=15.544800 units=m linecode=UG-CLP_3C_1/0_5/12/16KV phases=3 enabled=True
New Line.UG_PDRAR3129-D_07570$RAR3129_07570_ bus1=PDRAR3129-D_07570.1.2.3 bus2=RAR3129_07570_1.1.2.3 length=11.887200 units=m linecode=UG-BUS phases=3 enabled=True
New Line.OH_ND30593784_07570$ND120931951_075 bus1=ND30593784_07570.1.2.3 bus2=ND120931951_07570.1.2.3 length=768.095975 units=m linecode=OH-ACSR_3C_#4 phases=3 enabled=True
New Line.OH_1507174E_07570$765919E_07570 bus1=1507174E_07570.1.2.3 bus2=765919E_07570.1.2.3 length=492.251984 units=m linecode=OH-CU_3C_#6 phases=3 enabled=True
New Line.OH_ND30616427_07570$4075856E_07570 bus1=ND30616427_07570.1.2.3 bus2=4075856E_07570.1.2.3 length=14.325600 units=m linecode=OH-ACSR_3C_336 phases=3 enabled=True
New Line.OH_ND31713292_07570$1813457E_07570_ bus1=ND31713292_07570.1.2.3 bus2=1813457E_07570_1.1.2.3 length=10.058400 units=m linecode=OH-ACSR_3C_#4 phases=3 enabled=True
New Line.UG_4477578E_07570_1$P5504009-1_0757 bus1=4477578E_07570_1.1.2.3 bus2=P5504009-1_07570.1.2.3 length=253.898392 units=m linecode=UG-CLP_3C_#2_5/12/16KV phases=3 enabled=True
New Line.OH_ND30593575_07570$ND30616251_0757 bus1=ND30593575_07570.1.2.3 bus2=ND30616251_07570.1.2.3 length=971.092769 units=m linecode=OH-CU_3C_#6 phases=3 enabled=True
New Line.OH_4364055E_07570$2111258E_07570 bus1=4364055E_07570.1.2.3 bus2=2111258E_07570.1.2.3 length=915.923971 units=m linecode=OH-ACSR_3C_#4 phases=3 enabled=True
New Line.OH_ND31712685_07570$397385E_07570 bus1=ND31712685_07570.1.2.3 bus2=397385E_07570.1.2.3 length=168.859195 units=m linecode=OH-CU_3C_#2 phases=3 enabled=True
New Line.OH_1322481E_07570$4694481E_07570 bus1=1322481E_07570.1.2.3 bus2=4694481E_07570.1.2.3 length=33.223199 units=m linecode=OH-CU_3C_#6 phases=3 enabled=True
New Line.UG_140212299_07570$P5601317-1_07570 bus1=140212299_07570.1.2.3 bus2=P5601317-1_07570.1.2.3 length=3.352800 units=m linecode=UG-JCN_3C_#2_5/12/16KV phases=3 enabled=True
New Line.OH_ND30616331_07570$4210436E_07570 bus1=ND30616331_07570.1.2.3 bus2=4210436E_07570.1.2.3 length=137.464796 units=m linecode=OH-ACSR_3C_336 phases=3 enabled=True
...
