examples/Custom_controls_example/DSSfiles/Green_dss/lineswithcodes.dss
New Line.BF10036_07570$4362842E_07570 bus1=BF10036_07570.1.3 bus2=4362842E_07570.1.3 phases=2 length=101.803197 units=m spacing=STANDARD_2W_1N_2W  wires=[CU_#6, CU_#6, ]
New Line.1807754E_07570$BF10803_07570 bus1=1807754E_07570.1.2.3 bus2=BF10803_07570.1.2.3 phases=3 length=45.719999 units=m spacing=STANDARD_3W_1N_3W  wires=[CU_#6, CU_#6, CU_#6, ]
New Line.ND30593472_07570$BF10036_07570_1 bus1=ND30593472_07570.1.3 bus2=BF10036_07570_1.1.3 phases=2 length=14.6304 units=m spacing=STANDARD_2W_1N_2W  wires=[CU_#6, CU_#6, ]
New Line.2164875E_07570$2164704E_07570 bus1=2164875E_07570.1.2.3 bus2=2164704E_07570.1.2.3 phases=3 length=60.045598 units=m spacing=STANDARD_3W_1N_3W  wires=[CU_#6, CU_#6, CU_#6, ]
New Line.ND30593881_07570$BF10040_07570_1 bus1=ND30593881_07570.1.2 bus2=BF10040_07570_1.1.2 phases=2 length=21.945599 units=m spacing=STANDARD_2W_1N_2W  wires=[CU_#6, CU_#6, ]
New Line.1807893E_07570_1$2093101E_07570 bus1=1807893E_07570_1.1.2 bus2=2093101E_07570.1.2 phases=2 length=93.878397 units=m spacing=STANDARD_2W_1N_2W  wires=[ACSR_#4, ACSR_#4, ]
New Line.ND30593770_07570$2212596E_07570 bus1=ND30593770_07570.1.2.3 bus2=2212596E_07570.1.2.3 phases=3 length=62.179198 units=m spacing=STANDARD_3W_1N_3W  wires=[ACSR_#4, ACSR_#4, ACSR_#4, ]
New Line.ND30593482_07570$1466999E_07570 bus1=ND30593482_07570.1.2 bus2=1466999E_07570.1.2 phases=2 length=46.939198 units=m spacing=STANDARD_2W_1N_2W  wires=[ACSR_#4, ACSR_#4, ]
New Line.4026120E_07570_1$1898793E_07570 bus1=4026120E_07570_1.1.2 bus2=1898793E_07570.1.2 phases=2 length=217.627193 units=m spacing=STANDARD_2W_1N_2W  wires=[CU_#6, CU_#6, ]
New Line.ND30594054_07570$4416897E_07570_ bus1=ND30594054_07570.1.3 bus2=4416897E_07570_1.1.3 phases=2 length=14.6304 units=m spacing=STANDARD_2W_1N_2W  wires=[ACSR_1/0, ACSR_1/0, ]
New Line.BF10040_07570$755716E_07570 bus1=BF10040_07570.1.2 bus2=755716E_07570.1.2 phases=2 length=158.800795 units=m spacing=STANDARD_2W_1N_2W  wires=[CU_#6, CU_#6, ]
New Line.4419220E_07570$PS1907_07570 bus1=4419220E_07570.1.2.3 bus2=PS1907_07570.1.2.3 phases=3 length=131.368796 units=m spacing=STANDARD_3W_1N_3W  wires=[ACSR_336, ACSR_336, ACSR_336, ]
New Line.ND31712919_07570$4419220E_07570 bus1=ND31712919_07570.1.2.3 bus2=4419220E_07570.1.2.3 phases=3 length=35.661599 units=m spacing=STANDARD_3W_1N_3W  wires=[ACSR_336, ACSR_336, ACSR_336, ]
New Line.ND30594611_07570$2164875E_07570_ bus1=ND30594611_07570.1.2.3 bus2=2164875E_07570_1.1.2.3 phases=3 length=24.688799 units=m spacing=STANDARD_3W_1N_3W  wires=[CU_#6, CU_#6, CU_#6, ]
New Line.ND31714460_07570$1807893E_07570 bus1=ND31714460_07570.1.2 bus2=1807893E_07570.1.2 phases=2 length=27.736799 units=m spacing=STANDARD_2W_1N_2W  wires=[ACSR_#4, ACSR_#4, ]
New Line.ND31713044_07570$4335665E_07570 bus1=ND31713044_07570.1.2.3 bus2=4335665E_07570.1.2.3 phases=3 length=245.973592 units=m spacing=STANDARD_3W_1N_3W  wires=[CU_#6, CU_#6, CU_#6, ]
New Line.1322483E_07570$850250E_07570 bus1=1322483E_07570.1.2 bus2=850250E_07570.1.2 phases=2 length=125.882396 units=m spacing=STANDARD_2W_1N_2W  wires=[CU_#6, CU_#6, ]
New Line.ND30593769_07570$2090113E_07570 bus1=ND30593769_07570.1.2.3 bus2=2090113E_07570.1.2.3 phases=3 length=91.439997 units=m spacing=STANDARD_3W_1N_3W  wires=[ACSR_#4, ACSR_#4, ACSR_#4, ]
New Line.ND30593738_07570$RCS1676_07570 bus1=ND30593738_07570.1.2.3 bus2=RCS1676_07570.1.2.3 phases=3 length=119.481596 units=m spacing=STANDARD_3W_1N_3W  wires=[ACSR_336, ACSR_336, ACSR_336, ]
New Line.ND30593784_07570$4416893E_07570_ bus1=ND30593784_07570.1.2.3 bus2=4416893E_07570_1.1.2.3 phases=3 length=28.346399 units=m spacing=STANDARD_3W_1N_3W  wires=[ACSR_#4, ACSR_#4, ACSR_#4, ]
New Line.ND30594272_07570$1475773E_07570 bus1=ND30594272_07570.1.2.3 bus2=1475773E_07570.1.2.3 phases=3 length=12.8016 units=m spacing=STANDARD_3W_1N_3W  wires=[ACSR_1/0, ACSR_1/0, ACSR_1/0, ]
New Line.BF10042_07570$X10382E_07570 bus1=BF10042_07570.1.2 bus2=X10382E_07570.1.2 phases=2 length=301.75199 units=m spacing=STANDARD_2W_1N_2W  wires=[ACSR_#4, ACSR_#4, ]
New Line.PS0218_07570$1807754E_07570 bus1=PS0218_07570.1.2.3 bus2=1807754E_07570.1.2.3 phases=3 length=46.024799 units=m spacing=STANDARD_3W_1N_3W  wires=[CU_#6, CU_#6, CU_#6, ]
New Line.ND30594367_07570$4477578E_07570 bus1=ND30594367_07570.1.2.3 bus2=4477578E_07570.1.2.3 phases=3 length=14.3256 units=m spacing=STANDARD_3W_1N_3W  wires=[ACSR_336, ACSR_336, ACSR_336, ]
New Line.ND30593617_07570$ND30593618_0757 bus1=ND30593617_07570.1.2.3 bus2=ND30593618_07570.1.2.3 phases=3 length=74.066398 units=m spacing=STANDARD_3W_1N_3W  wires=[CU_#6, CU_#6, CU_#6, ]
New Line.ND30593565_07570$BF10042_07570_1 bus1=ND30593565_07570.1.2 bus2=BF10042_07570_1.1.2 phases=2 length=14.9352 units=m spacing=STANDARD_2W_1N_2W  wires=[ACSR_#4, ACSR_#4, ]
