examples/Custom_controls_example/DSSfiles/Green_dss/newswitches.dss
New Line.Switch_4684857E_07570_1_07570$4684857E_ Phases=3 bus1=4684857E_07570_1_07570.1.2.3 bus2=4684857E_07570.1.2.3 Switch = y r1 = 1e-4 x1 =0  r0 =1e-4 x0 = 0 c1 =0 c0 = 0
New Line.Switch_PS0159_07570_1$PS0159_07570 Phases=3 bus1=PS0159_07570_1.1.2.3 bus2=PS0159_07570.1.2.3 Switch = y r1 = 1e-4 x1 =0  r0 =1e-4 x0 = 0 c1 =0 c0 = 0
New Line.Switch_396520E_07570$396520E_07570_1 Phases=3 bus1=396520E_07570.1.2.3 bus2=396520E_07570_1.1.2.3 Switch = y r1 = 1e-4 x1 =0  r0 =1e-4 x0 = 0 c1 =0 c0 = 0
New Line.Switch_PS3196_07570$PS3196_07570_1 Phases=3 bus1=PS3196_07570.1.2.3 bus2=PS3196_07570_1.1.2.3 Switch = y r1 = 1e-4 x1 =0  r0 =1e-4 x0 = 0 c1 =0 c0 = 0
New Line.Switch_1982266E_07570$1982266E_07570_1 Phases=3 bus1=1982266E_07570.1.2.3 bus2=1982266E_07570_1.1.2.3 Switch = y r1 = 1e-4 x1 =0  r0 =1e-4 x0 = 0 c1 =0 c0 = 0
New Line.Switch_BF10035_07570_1$BF10035_07570 Phases=3 bus1=BF10035_07570_1.1.2.3 bus2=BF10035_07570.1.2.3 Switch = y r1 = 1e-4 x1 =0  r0 =1e-4 x0 = 0 c1 =0 c0 = 0
New Line.Switch_1466999E_07570$1466999E_07570_1 Phases=2 bus1=1466999E_07570.1.2 bus2=1466999E_07570_1.1.2 Switch = y r1 = 1e-4 x1 =0  r0 =1e-4 x0 = 0 c1 =0 c0 = 0
New Line.Switch_P5403124-2_07570$P5403124_F_0757 Phases=2 bus1=P5403124-2_07570.1.2 bus2=P5403124_F_07570.1.2 Switch = y r1 = 1e-4 x1 =0  r0 =1e-4 x0 = 0 c1 =0 c0 = 0
New Line.Switch_4167122E_07570_1$4167122E_07570 Phases=3 bus1=4167122E_07570_1.1.2.3 bus2=4167122E_07570.1.2.3 Switch = y r1 = 1e-4 x1 =0  r0 =1e-4 x0 = 0 c1 =0 c0 = 0
New Line.Switch_P5403116-1_07570$P5403116-1_T_07 Phases=3 bus1=P5403116-1_07570.1.2.3 bus2=P5403116-1_T_07570.1.2.3 Switch = y r1 = 1e-4 x1 =0  r0 =1e-4 x0 = 0 c1 =0 c0 = 0
New Line.Switch_P5403117-2_07570$P5403117_F_0757 Phases=3 bus1=P5403117-2_07570.1.2.3 bus2=P5403117_F_07570.1.2.3 Switch = y r1 = 1e-4 x1 =0  r0 =1e-4 x0 = 0 c1 =0 c0 = 0
New Line.Switch_4075856E_07570$4075856E_07570_1 Phases=3 bus1=4075856E_07570.1.2.3 bus2=4075856E_07570_1.1.2.3 Switch = y r1 = 1e-4 x1 =0  r0 =1e-4 x0 = 0 c1 =0 c0 = 0
New Line.Switch_BS4839-1_07570_1$BS4839-1_07570 Phases=3 bus1=BS4839-1_07570_1.1.2.3 bus2=BS4839-1_07570.1.2.3 Switch = y r1 = 1e-4 x1 =0  r0 =1e-4 x0 = 0 c1 =0 c0 = 0
New Line.Switch_B5372741-1_07570$B5372741_F_0757 Phases=3 bus1=B5372741-1_07570.1.2.3 bus2=B5372741_F_07570.1.2.3 Switch = y r1 = 1e-4 x1 =0  r0 =1e-4 x0 = 0 c1 =0 c0 = 0
New Line.Switch_P5372742-1_07570$P5372742-1_T_07 Phases=3 bus1=P5372742-1_07570.1.2.3 bus2=P5372742-1_T_07570.1.2.3 Switch = y r1 = 1e-4 x1 =0  r0 =1e-4 x0 = 0 c1 =0 c0 = 0
New Line.Switch_4026120E_07570$4026120E_07570_1 Phases=3 bus1=4026120E_07570.1.2.3 bus2=4026120E_07570_1.1.2.3 Switch = y r1 = 1e-4 x1 =0  r0 =1e-4 x0 = 0 c1 =0 c0 = 0
New Line.Switch_PS1361_07570$PS1361_07570_1 Phases=3 bus1=PS1361_07570.1.2.3 bus2=PS1361_07570_1.1.2.3 Switch = y r1 = 1e-4 x1 =0  r0 =1e-4 x0 = 0 c1 =0 c0 = 0
New Line.Switch_PS1360_07570_1$PS1360_07570 Phases=3 bus1=PS1360_07570_1.1.2.3 bus2=PS1360_07570.1.2.3 Switch = y r1 = 1e-4 x1 =0  r0 =1e-4 x0 = 0 c1 =0 c0 = 0
New Line.Switch_451688E_07570$451688E_07570_1 Phases=3 bus1=451688E_07570.1.2.3 bus2=451688E_07570_1.1.2.3 Switch = y r1 = 1e-4 x1 =0  r0 =1e-4 x0 = 0 c1 =0 c0 = 0
New Line.Switch_1851917ET1_07570$1851917ET1_0757 Phases=3 bus1=1851917ET1_07570.1.2.3 bus2=1851917ET1_07570_1.1.2.3 Switch = y r1 = 1e-4 x1 =0  r0 =1e-4 x0 = 0 c1 =0 c0 = 0
New Line.Switch_1851917E_07570_1$1851917E_07570 Phases=3 bus1=1851917E_07570_1.1.2.3 bus2=1851917E_07570.1.2.3 Switch = y r1 = 1e-4 x1 =0  r0 =1e-4 x0 = 0 c1 =0 c0 = 0
New Line.Switch_30591990_07570_1$30591990_07570 Phases=3 bus1=30591990_07570_1.1.2.3 bus2=30591990_07570.1.2.3 Switch = y r1 = 1e-4 x1 =0  r0 =1e-4 x0 = 0 c1 =0 c0 = 0
New Line.Switch_P5411969-1_07570$P5411969-1_T_07 Phases=3 bus1=P5411969-1_07570.1.2.3 bus2=P5411969-1_T_07570.1.2.3 Switch = y r1 = 1e-4 x1 =0  r0 =1e-4 x0 = 0 c1 =0 c0 = 0
New Line.Switch_30592000_07570$30592000_07570_1 Phases=3 bus1=30592000_07570.1.2.3 bus2=30592000_07570_1.1.2.3 Switch = y r1 = 1e-4 x1 =0  r0 =1e-4 x0 = 0 c1 =0 c0 = 0
New Line.Switch_P5411968-1_07570$P5411968-1_T_07 Phases=3 bus1=P5411968-1_07570.1.2.3 bus2=P5411968-1_T_07570.1.2.3 Switch = y r1 = 1e-4 x1 =0  r0 =1e-4 x0 = 0 c1 =0 c0 = 0
New Line.Switch_P5456297-1_07570$P5456297_F_0757 Phases=2 bus1=P5456297-1_07570.1.2 bus2=P5456297_F_07570.1.2 Switch = y r1 = 1e-4 x1 =0  r0 =1e-4 x0 = 0 c1 =0 c0 = 0
New Line.Switch_PS0218_07570_1$PS0218_07570 Phases=3 bus1=PS0218_07570_1.1.2.3 bus2=PS0218_07570.1.2.3 Switch = y r1 = 1e-4 x1 =0  r0 =1e-4 x0 = 0 c1 =0 c0 = 0
New Line.Switch_BF10803_07570$BF10803_07570_1 Phases=3 bus1=BF10803_07570.1.2.3 bus2=BF10803_07570_1.1.2.3 Switch = y r1 = 1e-4 x1 =0  r0 =1e-4 x0 = 0 c1 =0 c0 = 0
New Line.Switch_BF10042_07570_1$BF10042_07570 Phases=2 bus1=BF10042_07570_1.1.2 bus2=BF10042_07570.1.2 Switch = y r1 = 1e-4 x1 =0  r0 =1e-4 x0 = 0 c1 =0 c0 = 0
New Line.Switch_451697ET1_07570_1$451697ET1_0757 Phases=3 bus1=451697ET1_07570_1.1.2.3 bus2=451697ET1_07570.1.2.3 Switch = y r1 = 1e-4 x1 =0  r0 =1e-4 x0 = 0 c1 =0 c0 = 0
New Line.Switch_BF10048_07570$BF10048_07570_1 Phases=3 bus1=BF10048_07570.1.2.3 bus2=BF10048_07570_1.1.2.3 Switch = y r1 = 1e-4 x1 =0  r0 =1e-4 x0 = 0 c1 =0 c0 = 0
New Line.Switch_RCS1676_07570$RCS1676_07570_1 Phases=3 bus1=RCS1676_07570.1.2.3 bus2=RCS1676_07570_1.1.2.3 Switch = y r1 = 1e-4 x1 =0  r0 =1e-4 x0 = 0 c1 =0 c0 = 0
New Line.Switch_BF10809_07570_1$BF10809_07570 Phases=3 bus1=BF10809_07570_1.1.2.3 bus2=BF10809_07570.1.2.3 Switch = y r1 = 1e-4 x1 =0  r0 =1e-4 x0 = 0 c1 =0 c0 = 0
New Line.Switch_1275318E_07570_1$1275318E_07570 Phases=3 bus1=1275318E_07570_1.1.2.3 bus2=1275318E_07570.1.2.3 Switch = y r1 = 1e-4 x1 =0  r0 =1e-4 x0 = 0 c1 =0 c0 = 0
New Line.Switch_4477578E_07570$4477578E_07570_1 Phases=3 bus1=4477578E_07570.1.2.3 bus2=4477578E_07570_1.1.2.3 Switch = y r1 = 1e-4 x1 =0  r0 =1e-4 x0 = 0 c1 =0 c0 = 0
New Line.Switch_P5504009-1_07570$P5504009-1_T_07 Phases=3 bus1=P5504009-1_07570.1.2.3 bus2=P5504009-1_T_07570.1.2.3 Switch = y r1 = 1e-4 x1 =0  r0 =1e-4 x0 = 0 c1 =0 c0 = 0
New Line.Switch_RCS1359_07570$RCS1359_07570_1 Phases=3 bus1=RCS1359_07570.1.2.3 bus2=RCS1359_07570_1.1.2.3 Switch = y r1 = 1e-4 x1 =0  r0 =1e-4 x0 = 0 c1 =0 c0 = 0
New Line.Switch_703684E_07570_1$703684E_07570 Phases=3 bus1=703684E_07570_1.1.2.3 bus2=703684E_07570.1.2.3 Switch = y r1 = 1e-4 x1 =0  r0 =1e-4 x0 = 0 c1 =0 c0 = 0
New Line.Switch_1475768E_07570_1$1475768E_07570 Phases=3 bus1=1475768E_07570_1.1.2.3 bus2=1475768E_07570.1.2.3 Switch = y r1 = 1e-4 x1 =0  r0 =1e-4 x0 = 0 c1 =0 c0 = 0
New Line.Switch_BF10047_07570$BF10047_07570_1 Phases=3 bus1=BF10047_07570.1.2.3 bus2=BF10047_07570_1.1.2.3 Switch = y r1 = 1e-4 x1 =0  r0 =1e-4 x0 = 0 c1 =0 c0 = 0
New Line.Switch_1475773E_07570$1475773E_07570_1 Phases=3 bus1=1475773E_07570.1.2.3 bus2=1475773E_07570_1.1.2.3 Switch = y r1 = 1e-4 x1 =0  r0 =1e-4 x0 = 0 c1 =0 c0 = 0
New Line.Switch_P5476190-A_07570$P5476190-B_T_07 Phases=3 bus1=P5476190-A_07570.1.2.3 bus2=P5476190-B_T_07570.1.2.3 Switch = y r1 = 1e-4 x1 =0  r0 =1e-4 x0 = 0 c1 =0 c0 = 0
New Line.Switch_P5476190-B_T_07570$P5476190-B_07 Phases=3 bus1=P5476190-B_T_07570.1.2.3 bus2=P5476190-B_07570.1.2.3 Switch = y r1 = 1e-4 x1 =0  r0 =1e-4 x0 = 0 c1 =0 c0 = 0
New Line.Switch_P5476191-1_07570$P5476191-1_T_07 Phases=3 bus1=P5476191-1_07570.1.2.3 bus2=P5476191-1_T_07570.1.2.3 Switch = y r1 = 1e-4 x1 =0  r0 =1e-4 x0 = 0 c1 =0 c0 = 0
New Line.Switch_P5476190-B_T_07570$P5476190-T_F_ Phases=3 bus1=P5476190-B_T_07570.1.2.3 bus2=P5476190-T_F_07570.1.2.3 Switch = y r1 = 1e-4 x1 =0  r0 =1e-4 x0 = 0 c1 =0 c0 = 0
New Line.Switch_PS3195_07570$PS3195_07570_1 Phases=3 bus1=PS3195_07570.1.2.3 bus2=PS3195_07570_1.1.2.3 Switch = y r1 = 1e-4 x1 =0  r0 =1e-4 x0 = 0 c1 =0 c0 = 0
New Line.Switch_4226919ET_07570_1$4226919ET_0757 Phases=3 bus1=4226919ET_07570_1.1.2.3 bus2=4226919ET_07570.1.2.3 Switch = y r1 = 1e-4 x1 =0  r0 =1e-4 x0 = 0 c1 =0 c0 = 0
New Line.Switch_PS1358_07570$PS1358_07570_1 Phases=3 bus1=PS1358_07570.1.2.3 bus2=PS1358_07570_1.1.2.3 Switch = y r1 = 1e-4 x1 =0  r0 =1e-4 x0 = 0 c1 =0 c0 = 0
New Line.Switch_1322481E_07570_1$1322481E_07570 Phases=3 bus1=1322481E_07570_1.1.2.3 bus2=1322481E_07570.1.2.3 Switch = y r1 = 1e-4 x1 =0  r0 =1e-4 x0 = 0 c1 =0 c0 = 0
New Line.Switch_1322483E_07570_1$1322483E_07570 Phases=3 bus1=1322483E_07570_1.1.2.3 bus2=1322483E_07570.1.2.3 Switch = y r1 = 1e-4 x1 =0  r0 =1e-4 x0 = 0 c1 =0 c0 = 0
New Line.Switch_4552980E_07570$4552980E_07570_1 Phases=3 bus1=4552980E_07570.1.2.3 bus2=4552980E_07570_1.1.2.3 Switch = y r1 = 1e-4 x1 =0  r0 =1e-4 x0 = 0 c1 =0 c0 = 0
New Line.Switch_4368380E_07570$4368380E_07570_1 Phases=3 bus1=4368380E_07570.1.2.3 bus2=4368380E_07570_1.1.2.3 Switch = y r1 = 1e-4 x1 =0  r0 =1e-4 x0 = 0 c1 =0 c0 = 0
New Line.Switch_P5476178-1_07570$P5476178-1_T_07 Phases=3 bus1=P5476178-1_07570.1.2.3 bus2=P5476178-1_T_07570.1.2.3 Switch = y r1 = 1e-4 x1 =0  r0 =1e-4 x0 = 0 c1 =0 c0 = 0
New Line.Switch_P5476182-1_07570$P5476182-1_T_07 Phases=3 bus1=P5476182-1_07570.1.2.3 bus2=P5476182-1_T_07570.1.2.3 Switch = y r1 = 1e-4 x1 =0  r0 =1e-4 x0 = 0 c1 =0 c0 = 0
New Line.Switch_4093TT1_07570$4093TT1_07570_1 Phases=3 bus1=4093TT1_07570.1.2.3 bus2=4093TT1_07570_1.1.2.3 Switch = y r1 = 1e-4 x1 =0  r0 =1e-4 x0 = 0 c1 =0 c0 = 0
New Line.Switch_PDRAR3129-D_07570_1$PDRAR3129-D_ Phases=3 bus1=PDRAR3129-D_07570_1.1.2.3 bus2=PDRAR3129-D_07570.1.2.3 Switch = y r1 = 1e-4 x1 =0  r0 =1e-4 x0 = 0 c1 =0 c0 = 0
New Line.Switch_PDRAR3129-B_07570$PDRAR3129-B_07 Phases=3 bus1=PDRAR3129-B_07570.1.2.3 bus2=PDRAR3129-B_07570_1.1.2.3 Switch = y r1 = 1e-4 x1 =0  r0 =1e-4 x0 = 0 c1 =0 c0 = 0
New Line.Switch_1799483E_07570_1$1799483E_07570 Phases=3 bus1=1799483E_07570_1.1.2.3 bus2=1799483E_07570.1.2.3 Switch = y r1 = 1e-4 x1 =0  r0 =1e-4 x0 = 0 c1 =0 c0 = 0
New Line.Switch_1813457E_07570_1$1813457E_07570 Phases=3 bus1=1813457E_07570_1.1.2.3 bus2=1813457E_07570.1.2.3 Switch = y r1 = 1e-4 x1 =0  r0 =1e-4 x0 = 0 c1 =0 c0 = 0
New Line.Switch_601429E_07570$601429E_07570_1 Phases=3 bus1=601429E_07570.1.2.3 bus2=601429E_07570_1.1.2.3 Switch = y r1 = 1e-4 x1 =0  r0 =1e-4 x0 = 0 c1 =0 c0 = 0
New Line.Switch_1807893E_07570$1807893E_07570_1 Phases=2 bus1=1807893E_07570.1.2 bus2=1807893E_07570_1.1.2 Switch = y r1 = 1e-4 x1 =0  r0 =1e-4 x0 = 0 c1 =0 c0 = 0
New Line.Switch_397389E_07570$397389E_07570_1 Phases=3 bus1=397389E_07570.1.2.3 bus2=397389E_07570_1.1.2.3 Switch = y r1 = 1e-4 x1 =0  r0 =1e-4 x0 = 0 c1 =0 c0 = 0
New Line.Switch_BF10344_07570_1$BF10344_07570 Phases=3 bus1=BF10344_07570_1.1.2.3 bus2=BF10344_07570.1.2.3 Switch = y r1 = 1e-4 x1 =0  r0 =1e-4 x0 = 0 c1 =0 c0 = 0
New Line.Switch_PS0079_07570$PS0079_07570_1 Phases=3 bus1=PS0079_07570.1.2.3 bus2=PS0079_07570_1.1.2.3 Switch = y r1 = 1e-4 x1 =0  r0 =1e-4 x0 = 0 c1 =0 c0 = 0
New Line.Switch_1813481E_07570_1$1813481E_07570 Phases=3 bus1=1813481E_07570_1.1.2.3 bus2=1813481E_07570.1.2.3 Switch = y r1 = 1e-4 x1 =0  r0 =1e-4 x0 = 0 c1 =0 c0 = 0
New Line.Switch_4477596EP_07570$4477596EP_07570_ Phases=3 bus1=4477596EP_07570.1.2.3 bus2=4477596EP_07570_1.1.2.3 Switch = y r1 = 1e-4 x1 =0  r0 =1e-4 x0 = 0 c1 =0 c0 = 0
New Line.Switch_153574993_07570_1$153574993_0757 Phases=3 bus1=153574993_07570_1.1.2.3 bus2=153574993_07570.1.2.3 Switch = y r1 = 1e-4 x1 =0  r0 =1e-4 x0 = 0 c1 =0 c0 = 0
New Line.Switch_P5619191-1_07570$P5619191-1_T_07 Phases=3 bus1=P5619191-1_07570.1.2.3 bus2=P5619191-1_T_07570.1.2.3 Switch = y r1 = 1e-4 x1 =0  r0 =1e-4 x0 = 0 c1 =0 c0 = 0
New Line.Switch_BF10828_07570$BF10828_07570_1 Phases=3 bus1=BF10828_07570.1.2.3 bus2=BF10828_07570_1.1.2.3 Switch = y r1 = 1e-4 x1 =0  r0 =1e-4 x0 = 0 c1 =0 c0 = 0
New Line.Switch_BF10806_07570$BF10806_07570_1 Phases=3 bus1=BF10806_07570.1.2.3 bus2=BF10806_07570_1.1.2.3 Switch = y r1 = 1e-4 x1 =0  r0 =1e-4 x0 = 0 c1 =0 c0 = 0
New Line.Switch_PS1357_07570$PS1357_07570_1 Phases=3 bus1=PS1357_07570.1.2.3 bus2=PS1357_07570_1.1.2.3 Switch = y r1 = 1e-4 x1 =0  r0 =1e-4 x0 = 0 c1 =0 c0 = 0
New Line.Switch_4354829E_07570_1$4354829E_07570 Phases=3 bus1=4354829E_07570_1.1.2.3 bus2=4354829E_07570.1.2.3 Switch = y r1 = 1e-4 x1 =0  r0 =1e-4 x0 = 0 c1 =0 c0 = 0
New Line.Switch_2090178E_07570_1$2090178E_07570 Phases=3 bus1=2090178E_07570_1.1.2.3 bus2=2090178E_07570.1.2.3 Switch = y r1 = 1e-4 x1 =0  r0 =1e-4 x0 = 0 c1 =0 c0 = 0
New Line.Switch_P5059072-1_07570$P5059072-1_T_07 Phases=3 bus1=P5059072-1_07570.1.2.3 bus2=P5059072-1_T_07570.1.2.3 Switch = y r1 = 1e-4 x1 =0  r0 =1e-4 x0 = 0 c1 =0 c0 = 0
New Line.Switch_2270078EP1_07570$2270078EP1_0757 Phases=3 bus1=2270078EP1_07570.1.2.3 bus2=2270078EP1_07570_1.1.2.3 Switch = y r1 = 1e-4 x1 =0  r0 =1e-4 x0 = 0 c1 =0 c0 = 0
New Line.Switch_140212299_07570_1$140212299_0757 Phases=3 bus1=140212299_07570_1.1.2.3 bus2=140212299_07570.1.2.3 Switch = y r1 = 1e-4 x1 =0  r0 =1e-4 x0 = 0 c1 =0 c0 = 0
New Line.Switch_P5601317-1_07570$P5601317-1_T_07 Phases=3 bus1=P5601317-1_07570.1.2.3 bus2=P5601317-1_T_07570.1.2.3 Switch = y r1 = 1e-4 x1 =0  r0 =1e-4 x0 = 0 c1 =0 c0 = 0
New Line.Switch_BF10043_07570_1$BF10043_07570 Phases=3 bus1=BF10043_07570_1.1.2.3 bus2=BF10043_07570.1.2.3 Switch = y r1 = 1e-4 x1 =0  r0 =1e-4 x0 = 0 c1 =0 c0 = 0
New Line.Switch_7957T_07570_1$7957T_07570 Phases=3 bus1=7957T_07570_1.1.2.3 bus2=7957T_07570.1.2.3 Switch = y r1 = 1e-4 x1 =0  r0 =1e-4 x0 = 0 c1 =0 c0 = 0
New Line.Switch_4517778E_07570$4517778E_07570_1 Phases=3 bus1=4517778E_07570.1.2.3 bus2=4517778E_07570_1.1.2.3 Switch = y r1 = 1e-4 x1 =0  r0 =1e-4 x0 = 0 c1 =0 c0 = 0
New Line.Switch_703650E_07570$703650E_07570_1 Phases=3 bus1=703650E_07570.1.2.3 bus2=703650E_07570_1.1.2.3 Switch = y r1 = 1e-4 x1 =0  r0 =1e-4 x0 = 0 c1 =0 c0 = 0
New Line.Switch_BF10816_07570_1$BF10816_07570 Phases=3 bus1=BF10816_07570_1.1.2.3 bus2=BF10816_07570.1.2.3 Switch = y r1 = 1e-4 x1 =0  r0 =1e-4 x0 = 0 c1 =0 c0 = 0
New Line.Switch_1275932E_07570$1275932E_07570_1 Phases=3 bus1=1275932E_07570.1.2.3 bus2=1275932E_07570_1.1.2.3 Switch = y r1 = 1e-4 x1 =0  r0 =1e-4 x0 = 0 c1 =0 c0 = 0
New Line.Switch_4416893E_07570_1$4416893E_07570 Phases=3 bus1=4416893E_07570_1.1.2.3 bus2=4416893E_07570.1.2.3 Switch = y r1 = 1e-4 x1 =0  r0 =1e-4 x0 = 0 c1 =0 c0 = 0
New Line.Switch_P5504304-1_07570$P5504304-1_T_07 Phases=3 bus1=P5504304-1_07570.1.2.3 bus2=P5504304-1_T_07570.1.2.3 Switch = y r1 = 1e-4 x1 =0  r0 =1e-4 x0 = 0 c1 =0 c0 = 0
New Line.Switch_4416894E_07570_1$4416894E_07570 Phases=3 bus1=4416894E_07570_1.1.2.3 bus2=4416894E_07570.1.2.3 Switch = y r1 = 1e-4 x1 =0  r0 =1e-4 x0 = 0 c1 =0 c0 = 0
New Line.Switch_P5618240-1_07570$P5618240-1_T_07 Phases=3 bus1=P5618240-1_07570.1.2.3 bus2=P5618240-1_T_07570.1.2.3 Switch = y r1 = 1e-4 x1 =0  r0 =1e-4 x0 = 0 c1 =0 c0 = 0
New Line.Switch_PS1364_07570_1$PS1364_07570 Phases=3 bus1=PS1364_07570_1.1.2.3 bus2=PS1364_07570.1.2.3 Switch = y r1 = 1e-4 x1 =0  r0 =1e-4 x0 = 0 c1 =0 c0 = 0
New Line.Switch_BF10829_07570$BF10829_07570_1 Phases=3 bus1=BF10829_07570.1.2.3 bus2=BF10829_07570_1.1.2.3 Switch = y r1 = 1e-4 x1 =0  r0 =1e-4 x0 = 0 c1 =0 c0 = 0
New Line.Switch_2164875E_07570_1$2164875E_07570 Phases=3 bus1=2164875E_07570_1.1.2.3 bus2=2164875E_07570.1.2.3 Switch = y r1 = 1e-4 x1 =0  r0 =1e-4 x0 = 0 c1 =0 c0 = 0
New Line.Switch_4250691E_07570$4250691E_07570_1 Phases=3 bus1=4250691E_07570.1.2.3 bus2=4250691E_07570_1.1.2.3 Switch = y r1 = 1e-4 x1 =0  r0 =1e-4 x0 = 0 c1 =0 c0 = 0
New Line.Switch_410193E_07570_1$410193E_07570 Phases=3 bus1=410193E_07570_1.1.2.3 bus2=410193E_07570.1.2.3 Switch = y r1 = 1e-4 x1 =0  r0 =1e-4 x0 = 0 c1 =0 c0 = 0
New Line.Switch_BF10038_07570$BF10038_07570_1 Phases=3 bus1=BF10038_07570.1.2.3 bus2=BF10038_07570_1.1.2.3 Switch = y r1 = 1e-4 x1 =0  r0 =1e-4 x0 = 0 c1 =0 c0 = 0
New Line.Switch_392069E_07570_1$392069E_07570 Phases=3 bus1=392069E_07570_1.1.2.3 bus2=392069E_07570.1.2.3 Switch = y r1 = 1e-4 x1 =0  r0 =1e-4 x0 = 0 c1 =0 c0 = 0
New Line.Switch_BF10041_07570$BF10041_07570_1 Phases=3 bus1=BF10041_07570.1.2.3 bus2=BF10041_07570_1.1.2.3 Switch = y r1 = 1e-4 x1 =0  r0 =1e-4 x0 = 0 c1 =0 c0 = 0
New Line.Switch_4416897E_07570_1$4416897E_07570 Phases=2 bus1=4416897E_07570_1.1.3 bus2=4416897E_07570.1.3 Switch = y r1 = 1e-4 x1 =0  r0 =1e-4 x0 = 0 c1 =0 c0 = 0
New Line.Switch_P5504308-2_07570$P5504308_F_0757 Phases=2 bus1=P5504308-2_07570.1.3 bus2=P5504308_F_07570.1.3 Switch = y r1 = 1e-4 x1 =0  r0 =1e-4 x0 = 0 c1 =0 c0 = 0
New Line.Switch_P5504308_F_07570$P5504308-1_0757 Phases=2 bus1=P5504308_F_07570.1.3 bus2=P5504308-1_07570.1.3 Switch = y r1 = 1e-4 x1 =0  r0 =1e-4 x0 = 0 c1 =0 c0 = 0
New Line.Switch_P5586101-2_07570$P5586101_F_0757 Phases=2 bus1=P5586101-2_07570.1.3 bus2=P5586101_F_07570.1.3 Switch = y r1 = 1e-4 x1 =0  r0 =1e-4 x0 = 0 c1 =0 c0 = 0
New Line.Switch_BF10039_07570$BF10039_07570_1 Phases=3 bus1=BF10039_07570.1.2.3 bus2=BF10039_07570_1.1.2.3 Switch = y r1 = 1e-4 x1 =0  r0 =1e-4 x0 = 0 c1 =0 c0 = 0
New Line.Switch_BF10040_07570_1$BF10040_07570 Phases=2 bus1=BF10040_07570_1.1.2 bus2=BF10040_07570.1.2 Switch = y r1 = 1e-4 x1 =0  r0 =1e-4 x0 = 0 c1 =0 c0 = 0
New Line.Switch_4226561E_07570_1$4226561E_07570 Phases=3 bus1=4226561E_07570_1.1.2.3 bus2=4226561E_07570.1.2.3 Switch = y r1 = 1e-4 x1 =0  r0 =1e-4 x0 = 0 c1 =0 c0 = 0
New Line.Switch_BF10036_07570_1$BF10036_07570 Phases=2 bus1=BF10036_07570_1.1.3 bus2=BF10036_07570.1.3 Switch = y r1 = 1e-4 x1 =0  r0 =1e-4 x0 = 0 c1 =0 c0 = 0
New Line.Switch_4122963E_07570_1$4122963E_07570 Phases=3 bus1=4122963E_07570_1.1.2.3 bus2=4122963E_07570.1.2.3 Switch = y r1 = 1e-4 x1 =0  r0 =1e-4 x0 = 0 c1 =0 c0 = 0
New Line.Switch_P5393566-1_07570$P5393566_F_0757 Phases=3 bus1=P5393566-1_07570.1.2.3 bus2=P5393566_F_07570.1.2.3 Switch = y r1 = 1e-4 x1 =0  r0 =1e-4 x0 = 0 c1 =0 c0 = 0
New Line.Switch_4130804E_07570$4130804E_07570_1 Phases=3 bus1=4130804E_07570.1.2.3 bus2=4130804E_07570_1.1.2.3 Switch = y r1 = 1e-4 x1 =0  r0 =1e-4 x0 = 0 c1 =0 c0 = 0
New Line.Switch_P5393567-1_07570$P5393567_F_0757 Phases=3 bus1=P5393567-1_07570.1.2.3 bus2=P5393567_F_07570.1.2.3 Switch = y r1 = 1e-4 x1 =0  r0 =1e-4 x0 = 0 c1 =0 c0 = 0
New Line.Switch_BF10561_07570_1$BF10561_07570 Phases=3 bus1=BF10561_07570_1.1.2.3 bus2=BF10561_07570.1.2.3 Switch = y r1 = 1e-4 x1 =0  r0 =1e-4 x0 = 0 c1 =0 c0 = 0