examples/Custom_controls_example/DSSfiles/Green_dss/newtransformers.dss
New Transformer.1123341E phases=3 wdg=1 bus=1123341E_07570.1.2.3 conn=wye kv=12.00 kVA=75 wdg=2 bus=X_1123341E_T_07570.1.2.3 kv=0.48 kVA=75 %loadloss=0.749 %noloadloss=.171 XHL=1.773 emerghkva=105
New Transformer.1123342E phases=3 wdg=1 bus=1123342E_07570.1.2.3 conn=wye kv=12.00 kVA=10 wdg=2 bus=X_1123342E_T_07570.1.2.3 kv=0.48 kVA=10 %loadloss=1.153 %noloadloss=.318 XHL=1.888 emerghkva=14
New Transformer.1223308E phases=3 wdg=1 bus=1223308E_07570.1.2.3 conn=wye kv=12.00 kVA=30 wdg=2 bus=X_1223308E_T_07570.1.2.3 kv=0.48 kVA=30 %loadloss=0.7221 %noloadloss=.2423 XHL=1.5158 emerghkva=42
New Transformer.1254458E phases=3 wdg=1 bus=1254458E_07570.1.2.3 conn=wye kv=12.00 kVA=30 wdg=2 bus=X_1254458E_T_07570.1.2.3 kv=0.48 kVA=30 %loadloss=0.831 %noloadloss=.219 XHL=1.686 emerghkva=42
New Transformer.1254567E phases=3 wdg=1 bus=1254567E_07570.1.2.3 conn=wye kv=12.00 kVA=10 wdg=2 bus=X_1254567E_T_07570.1.2.3 kv=0.48 kVA=10 %loadloss=1.153 %noloadloss=.318 XHL=1.888 emerghkva=14
New Transformer.12546T phases=3 wdg=1 bus=12546T_07570.1.2.3 conn=wye kv=12.00 kVA=45 wdg=2 bus=X_12546T_T_07570.1.2.3 kv=0.48 kVA=45 %loadloss=0.7380 %noloadloss=.1987 XHL=1.7532 emerghkva=63
New Transformer.1299702E phases=3 wdg=1 bus=1299702E_07570.1.2.3 conn=wye kv=12.00 kVA=25 wdg=2 bus=X_1299702E_T_07570.1.2.3 kv=0.48 kVA=25 %loadloss=1.008 %noloadloss=.230 XHL=1.803 emerghkva=35
New Transformer.1340496E_07570$1340496E_T_0757-1 phases=3 wdg=1 bus=1340496E_07570.1.2.3 conn=wye kv=12.00 kVA=50 wdg=2 bus=X_1340496E_T_07570.1.2.3 kv=0.416 kVA=50 %loadloss=0.811 %noloadloss=.184 XHL=1.765 emerghkva=70
New Transformer.1406528E_07570$1406528E_T_0757-1 phases=3 wdg=1 bus=1406528E_07570.1.2.3 conn=wye kv=12.00 kVA=30 wdg=2 bus=X_1406528E_T_07570.1.2.3 kv=0.416 kVA=30 %loadloss=0.831 %noloadloss=.219 XHL=1.686 emerghkva=42
New Transformer.1406609E phases=3 wdg=1 bus=1406609E_07570.1.2.3 conn=wye kv=12.00 kVA=10 wdg=2 bus=X_1406609E_T_07570.1.2.3 kv=0.48 kVA=10 %loadloss=1.153 %noloadloss=.318 XHL=1.888 emerghkva=14
New Transformer.1406796E phases=3 wdg=1 bus=1406796E_07570.1.2.3 conn=wye kv=12.00 kVA=150 wdg=2 bus=X_1406796E_T_07570.1.2.3 kv=0.48 kVA=150 %loadloss=0.6991 %noloadloss=.2298 XHL=3 emerghkva=210
!New Transformer.1434526E phases=3 wdg=1 bus=1434526E_07570.1.2.3 conn=wye kv=12.00 kVA=0 wdg=2 bus=X_1434526E_T_07570.1.2.3 kv=0.48 kVA=0 %loadloss=1.022 %noloadloss=.3221 XHL=1.707 emerghkva=0
New Transformer.1434873E phases=3 wdg=1 bus=1434873E_07570.1.2.3 conn=wye kv=12.00 kVA=5 wdg=2 bus=X_1434873E_T_07570.1.2.3 kv=0.48 kVA=5 %loadloss=1.153 %noloadloss=.318 XHL=1.888 emerghkva=7
New Transformer.1475348E phases=3 wdg=1 bus=1475348E_07570.1.2.3 conn=wye kv=12.00 kVA=45 wdg=2 bus=X_1475348E_T_07570.1.2.3 kv=0.48 kVA=45 %loadloss=0.811 %noloadloss=.184 XHL=1.765 emerghkva=63
New Transformer.1475350E phases=3 wdg=1 bus=1475350E_07570.1.2.3 conn=wye kv=12.00 kVA=25 wdg=2 bus=X_1475350E_T_07570.1.2.3 kv=0.48 kVA=25 %loadloss=0.7639 %noloadloss=.0851 XHL=2.1 emerghkva=35
New Transformer.1507174E phases=3 wdg=1 bus=1507174E_07570.1.2.3 conn=wye kv=12.00 kVA=75 wdg=2 bus=X_1507174E_T_07570.1.2.3 kv=0.48 kVA=75 %loadloss=0.749 %noloadloss=.171 XHL=1.773 emerghkva=105
New Transformer.1636824E phases=3 wdg=1 bus=1636824E_07570.1.2.3 conn=wye kv=12.00 kVA=15 wdg=2 bus=X_1636824E_T_07570.1.2.3 kv=0.48 kVA=15 %loadloss=0.7639 %noloadloss=.0851 XHL=2.1 emerghkva=21
New Transformer.1636825E phases=3 wdg=1 bus=1636825E_07570.1.2.3 conn=wye kv=12.00 kVA=30 wdg=2 bus=X_1636825E_T_07570.1.2.3 kv=0.48 kVA=30 %loadloss=0.831 %noloadloss=.219 XHL=1.686 emerghkva=42
New Transformer.1636876E phases=3 wdg=1 bus=1636876E_07570.1.2.3 conn=wye kv=12.00 kVA=10 wdg=2 bus=X_1636876E_T_07570.1.2.3 kv=0.48 kVA=10 %loadloss=1.022 %noloadloss=.3221 XHL=1.707 emerghkva=14
New Transformer.1763646E phases=3 wdg=1 bus=1763646E_07570.1.2.3 conn=wye kv=12.00 kVA=5 wdg=2 bus=X_1763646E_T_07570.1.2.3 kv=0.48 kVA=5 %loadloss=1.022 %noloadloss=.3221 XHL=1.707 emerghkva=7
New Transformer.1763673E_07570$1763673E_T_0757-1 phases=3 wdg=1 bus=1763673E_07570.1.2.3 conn=wye kv=12.00 kVA=30 wdg=2 bus=X_1763673E_T_07570.1.2.3 kv=0.416 kVA=30 %loadloss=0.831 %noloadloss=.219 XHL=1.686 emerghkva=42
New Transformer.1763996E phases=3 wdg=1 bus=1763996E_07570.1.2.3 conn=wye kv=12.00 kVA=20 wdg=2 bus=X_1763996E_T_07570.1.2.3 kv=0.48 kVA=20 %loadloss=1.008 %noloadloss=.230 XHL=1.803 emerghkva=28
New Transformer.1807630E phases=3 wdg=1 bus=1807630E_07570.1.2.3 conn=wye kv=12.00 kVA=15 wdg=2 bus=X_1807630E_T_07570.1.2.3 kv=0.48 kVA=15 %loadloss=1.008 %noloadloss=.230 XHL=1.803 emerghkva=21
New Transformer.1807754E phases=3 wdg=1 bus=1807754E_07570.1.2.3 conn=wye kv=12.00 kVA=112 wdg=2 bus=X_1807754E_T_07570.1.2.3 kv=0.48 kVA=112 %loadloss=0.6991 %noloadloss=.2298 XHL=3 emerghkva=156.8
New Transformer.1807861E phases=3 wdg=1 bus=1807861E_07570.1.2.3 conn=wye kv=12.00 kVA=25 wdg=2 bus=X_1807861E_T_07570.1.2.3 kv=0.48 kVA=25 %loadloss=1.008 %noloadloss=.230 XHL=1.803 emerghkva=35
New Transformer.1807862E phases=3 wdg=1 bus=1807862E_07570.1.2.3 conn=wye kv=12.00 kVA=45 wdg=2 bus=X_1807862E_T_07570.1.2.3 kv=0.48 kVA=45 %loadloss=0.811 %noloadloss=.184 XHL=1.765 emerghkva=63
New Transformer.1807900E_07570$1807900E_T_0757-1 phases=3 wdg=1 bus=1807900E_07570.1.2.3 conn=wye kv=12.00 kVA=50 wdg=2 bus=X_1807900E_T_07570.1.2.3 kv=0.416 kVA=50 %loadloss=0.7380 %noloadloss=.1987 XHL=1.7532 emerghkva=70
New Transformer.1813456E_07570$1813456E_T_0757-1 phases=3 wdg=1 bus=1813456E_07570.1.2.3 conn=wye kv=12.00 kVA=30 wdg=2 bus=X_1813456E_T_07570.1.2.3 kv=0.416 kVA=30 %loadloss=0.831 %noloadloss=.219 XHL=1.686 emerghkva=42
New Transformer.1813486E_07570$1813486E_T_0757-1 phases=3 wdg=1 bus=1813486E_07570.1.2.3 conn=wye kv=12.00 kVA=20 wdg=2 bus=X_1813486E_T_07570.1.2.3 kv=0.416 kVA=20 %loadloss=0.7639 %noloadloss=.0851 XHL=2.1 emerghkva=28
New Transformer.1851663E_07570$1851663E_T_0757-1 phases=3 wdg=1 bus=1851663E_07570.1.2.3 conn=wye kv=12.00 kVA=75 wdg=2 bus=X_1851663E_T_07570.1.2.3 kv=0.416 kVA=75 %loadloss=0.7578 %noloadloss=.1348 XHL=2.41 emerghkva=105
New Transformer.1898793E phases=1 wdg=1 bus=1898793E_07570.1.2 conn=delta kv=12.00 kVA=10 wdg=2 bus=X_1898793E_T_07570.1 kv=0.24 kVA=10 %loadloss=1.022 %noloadloss=.3221 XHL=1.707 emerghkva=14
New Transformer.1943316E_07570$1943316E_T_0757-1 phases=3 wdg=1 bus=1943316E_07570.1.2.3 conn=wye kv=12.00 kVA=50 wdg=2 bus=X_1943316E_T_07570.1.2.3 kv=0.416 kVA=50 %loadloss=0.7380 %noloadloss=.1987 XHL=1.7532 emerghkva=70
New Transformer.1982073E_07570$1982073E_T_0757-1 phases=3 wdg=1 bus=1982073E_07570.1.2.3 conn=wye kv=12.00 kVA=30 wdg=2 bus=X_1982073E_T_07570.1.2.3 kv=0.416 kVA=30 %loadloss=0.7221 %noloadloss=.2423 XHL=1.5158 emerghkva=42
New Transformer.1982078E_07570$1982078E_T_0757-1 phases=3 wdg=1 bus=1982078E_07570.1.2.3 conn=wye kv=12.00 kVA=50 wdg=2 bus=X_1982078E_T_07570.1.2.3 kv=0.416 kVA=50 %loadloss=0.811 %noloadloss=.184 XHL=1.765 emerghkva=70
New Transformer.1982110E phases=3 wdg=1 bus=1982110E_07570.1.2.3 conn=wye kv=12.00 kVA=15 wdg=2 bus=X_1982110E_T_07570.1.2.3 kv=0.48 kVA=15 %loadloss=0.7639 %noloadloss=.0851 XHL=2.1 emerghkva=21
New Transformer.1982177E_07570$1982177E_T_0757-1 phases=3 wdg=1 bus=1982177E_07570.1.2.3 conn=wye kv=12.00 kVA=50 wdg=2 bus=X_1982177E_T_07570.1.2.3 kv=0.416 kVA=50 %loadloss=0.7380 %noloadloss=.1987 XHL=1.7532 emerghkva=70
!New Transformer.1982184E phases=3 wdg=1 bus=1982184E_07570.1.2.3 conn=wye kv=12.00 kVA=0 wdg=2 bus=X_1982184E_T_07570.1.2.3 kv=0.48 kVA=0 %loadloss=1.022 %noloadloss=.3221 XHL=1.707 emerghkva=0
!New Transformer.1982285E phases=3 wdg=1 bus=1982285E_07570.1.2.3 conn=wye kv=12.00 kVA=0 wdg=2 bus=X_1982285E_T_07570.1.2.3 kv=0.48 kVA=0 %loadloss=1.022 %noloadloss=.3221 XHL=1.707 emerghkva=0
New Transformer.1982290E phases=3 wdg=1 bus=1982290E_07570.1.2.3 conn=wye kv=12.00 kVA=10 wdg=2 bus=X_1982290E_T_07570.1.2.3 kv=0.48 kVA=10 %loadloss=1.022 %noloadloss=.3221 XHL=1.707 emerghkva=14
New Transformer.1982338E_07570$1982338E_T_0757-1 phases=3 wdg=1 bus=1982338E_07570.1.2.3 conn=wye kv=12.00 kVA=20 wdg=2 bus=X_1982338E_T_07570.1.2.3 kv=0.416 kVA=20 %loadloss=1.008 %noloadloss=.230 XHL=1.803 emerghkva=28
New Transformer.2024837E_07570$2024837E_T_0757-1 phases=3 wdg=1 bus=2024837E_07570.1.2.3 conn=wye kv=12.00 kVA=50 wdg=2 bus=X_2024837E_T_07570.1.2.3 kv=0.416 kVA=50 %loadloss=0.7380 %noloadloss=.1987 XHL=1.7532 emerghkva=70
New Transformer.2024846E_07570$2024846E_T_0757-1 phases=3 wdg=1 bus=2024846E_07570.1.2.3 conn=wye kv=12.00 kVA=20 wdg=2 bus=X_2024846E_T_07570.1.2.3 kv=0.416 kVA=20 %loadloss=1.008 %noloadloss=.230 XHL=1.803 emerghkva=28
New Transformer.2093101E_07570$2093101E_T_0757-1 phases=1 wdg=1 bus=2093101E_07570.1.2 conn=delta kv=12.00 kVA=30 wdg=2 bus=X_2093101E_T_07570.1 kv=0.240 kVA=30 %loadloss=0.831 %noloadloss=.219 XHL=1.686 emerghkva=42
New Transformer.2093143E_07570$2093143E_T_0757-1 phases=3 wdg=1 bus=2093143E_07570.1.2.3 conn=wye kv=12.00 kVA=20 wdg=2 bus=X_2093143E_T_07570.1.2.3 kv=0.416 kVA=20 %loadloss=0.7639 %noloadloss=.0851 XHL=2.1 emerghkva=28
New Transformer.2111258E_07570$2111258E_T_0757-1 phases=3 wdg=1 bus=2111258E_07570.1.2.3 conn=wye kv=12.00 kVA=75 wdg=2 bus=X_2111258E_T_07570.1.2.3 kv=0.416 kVA=75 %loadloss=0.7578 %noloadloss=.1348 XHL=2.41 emerghkva=105
New Transformer.2125310E_07570$2125310E_T_0757-1 phases=3 wdg=1 bus=2125310E_07570.1.2.3 conn=wye kv=12.00 kVA=50 wdg=2 bus=X_2125310E_T_07570.1.2.3 kv=0.416 kVA=50 %loadloss=0.811 %noloadloss=.184 XHL=1.765 emerghkva=70
New Transformer.2138543E phases=3 wdg=1 bus=2138543E_07570.1.2.3 conn=wye kv=12.00 kVA=75 wdg=2 bus=X_2138543E_T_07570.1.2.3 kv=0.48 kVA=75 %loadloss=0.749 %noloadloss=.171 XHL=1.773 emerghkva=105
New Transformer.2163006E_07570$2163006E_T_0757-1 phases=3 wdg=1 bus=2163006E_07570.1.2.3 conn=wye kv=12.00 kVA=20 wdg=2 bus=X_2163006E_T_07570.1.2.3 kv=0.416 kVA=20 %loadloss=1.008 %noloadloss=.230 XHL=1.803 emerghkva=28
New Transformer.2164704E phases=3 wdg=1 bus=2164704E_07570.1.2.3 conn=wye kv=12.00 kVA=15 wdg=2 bus=X_2164704E_T_07570.1.2.3 kv=0.48 kVA=15 %loadloss=1.008 %noloadloss=.230 XHL=1.803 emerghkva=21
New Transformer.2197942E phases=3 wdg=1 bus=2197942E_07570.1.2.3 conn=wye kv=12.00 kVA=10 wdg=2 bus=X_2197942E_T_07570.1.2.3 kv=0.48 kVA=10 %loadloss=1.153 %noloadloss=.318 XHL=1.888 emerghkva=14
New Transformer.2198214E_07570$2198214E_T_0757-1 phases=3 wdg=1 bus=2198214E_07570.1.2.3 conn=wye kv=12.00 kVA=50 wdg=2 bus=X_2198214E_T_07570.1.2.3 kv=0.416 kVA=50 %loadloss=0.811 %noloadloss=.184 XHL=1.765 emerghkva=70
New Transformer.2212593E phases=3 wdg=1 bus=2212593E_07570.1.2.3 conn=wye kv=12.00 kVA=112 wdg=2 bus=X_2212593E_T_07570.1.2.3 kv=0.48 kVA=112 %loadloss=0.6991 %noloadloss=.2298 XHL=3 emerghkva=156.8
New Transformer.2212993E_07570$2212993E_T_0757-1 phases=3 wdg=1 bus=2212993E_07570.1.2.3 conn=wye kv=12.00 kVA=20 wdg=2 bus=X_2212993E_T_07570.1.2.3 kv=0.416 kVA=20 %loadloss=1.008 %noloadloss=.230 XHL=1.803 emerghkva=28
New Transformer.2229829E phases=3 wdg=1 bus=2229829E_07570.1.2.3 conn=wye kv=12.00 kVA=20 wdg=2 bus=X_2229829E_T_07570.1.2.3 kv=0.48 kVA=20 %loadloss=1.008 %noloadloss=.230 XHL=1.803 emerghkva=28
New Transformer.2253642E phases=3 wdg=1 bus=2253642E_07570.1.2.3 conn=wye kv=12.00 kVA=10 wdg=2 bus=X_2253642E_T_07570.1.2.3 kv=0.48 kVA=10 %loadloss=1.022 %noloadloss=.3221 XHL=1.707 emerghkva=14
New Transformer.2253647E phases=3 wdg=1 bus=2253647E_07570.1.2.3 conn=wye kv=12.00 kVA=30 wdg=2 bus=X_2253647E_T_07570.1.2.3 kv=0.48 kVA=30 %loadloss=0.7221 %noloadloss=.2423 XHL=1.5158 emerghkva=42
New Transformer.2272786E phases=3 wdg=1 bus=2272786E_07570.1.2.3 conn=wye kv=12.00 kVA=20 wdg=2 bus=X_2272786E_T_07570.1.2.3 kv=0.48 kVA=20 %loadloss=0.7639 %noloadloss=.0851 XHL=2.1 emerghkva=28
New Transformer.2281906ED phases=3 wdg=1 bus=2281906ED_07570.1.2.3 conn=wye kv=12.00 kVA=30 wdg=2 bus=X_2281906ED_T_07570.1.2.3 kv=0.48 kVA=30 %loadloss=0.831 %noloadloss=.219 XHL=1.686 emerghkva=42
New Transformer.2286962E phases=3 wdg=1 bus=2286962E_07570.1.2.3 conn=wye kv=12.00 kVA=15 wdg=2 bus=X_2286962E_T_07570.1.2.3 kv=0.48 kVA=15 %loadloss=1.008 %noloadloss=.230 XHL=1.803 emerghkva=21
New Transformer.2288841E_07570$2288841E_T_0757-1 phases=3 wdg=1 bus=2288841E_07570.1.2.3 conn=wye kv=12.00 kVA=20 wdg=2 bus=X_2288841E_T_07570.1.2.3 kv=0.416 kVA=20 %loadloss=1.008 %noloadloss=.230 XHL=1.803 emerghkva=28
New Transformer.2288847E_07570$2288847E_T_0757-1 phases=3 wdg=1 bus=2288847E_07570.1.2.3 conn=wye kv=12.00 kVA=50 wdg=2 bus=X_2288847E_T_07570.1.2.3 kv=0.416 kVA=50 %loadloss=0.811 %noloadloss=.184 XHL=1.765 emerghkva=70
!New Transformer.2295944E phases=3 wdg=1 bus=2295944E_07570.1.2.3 conn=wye kv=12.00 kVA=0 wdg=2 bus=X_2295944E_T_07570.1.2.3 kv=0.48 kVA=0 %loadloss=1.022 %noloadloss=.3221 XHL=1.707 emerghkva=0
New Transformer.2331043E_07570$2331043E_T_0757-1 phases=3 wdg=1 bus=2331043E_07570.1.2.3 conn=wye kv=12.00 kVA=20 wdg=2 bus=X_2331043E_T_07570.1.2.3 kv=0.416 kVA=20 %loadloss=1.008 %noloadloss=.230 XHL=1.803 emerghkva=28
New Transformer.2331624E phases=3 wdg=1 bus=2331624E_07570.1.2.3 conn=wye kv=12.00 kVA=75 wdg=2 bus=X_2331624E_T_07570.1.2.3 kv=0.48 kVA=75 %loadloss=0.7578 %noloadloss=.1348 XHL=2.41 emerghkva=105
New Transformer.392078E phases=3 wdg=1 bus=392078E_07570.1.2.3 conn=wye kv=12.00 kVA=5 wdg=2 bus=X_392078E_T_07570.1.2.3 kv=0.48 kVA=5 %loadloss=1.153 %noloadloss=.318 XHL=1.888 emerghkva=7
New Transformer.396528E phases=3 wdg=1 bus=396528E_07570.1.2.3 conn=wye kv=12.00 kVA=20 wdg=2 bus=X_396528E_T_07570.1.2.3 kv=0.48 kVA=20 %loadloss=1.008 %noloadloss=.230 XHL=1.803 emerghkva=28
New Transformer.397385E_07570$397385E_T_07570-1 phases=3 wdg=1 bus=397385E_07570.1.2.3 conn=wye kv=12.00 kVA=10 wdg=2 bus=X_397385E_T_07570.1.2.3 kv=0.416 kVA=10 %loadloss=1.153 %noloadloss=.318 XHL=1.888 emerghkva=14
New Transformer.4001837E phases=3 wdg=1 bus=4001837E_07570.1.2.3 conn=wye kv=12.00 kVA=15 wdg=2 bus=X_4001837E_T_07570.1.2.3 kv=0.48 kVA=15 %loadloss=0.7639 %noloadloss=.0851 XHL=2.1 emerghkva=21
New Transformer.4002234E phases=3 wdg=1 bus=4002234E_07570.1.2.3 conn=wye kv=12.00 kVA=75 wdg=2 bus=X_4002234E_T_07570.1.2.3 kv=0.48 kVA=75 %loadloss=0.749 %noloadloss=.171 XHL=1.773 emerghkva=105
New Transformer.4026131E phases=3 wdg=1 bus=4026131E_07570.1.2.3 conn=wye kv=12.00 kVA=10 wdg=2 bus=X_4026131E_T_07570.1.2.3 kv=0.48 kVA=10 %loadloss=1.153 %noloadloss=.318 XHL=1.888 emerghkva=14
New Transformer.4026373E phases=3 wdg=1 bus=4026373E_07570.1.2.3 conn=wye kv=12.00 kVA=20 wdg=2 bus=X_4026373E_T_07570.1.2.3 kv=0.48 kVA=20 %loadloss=1.008 %noloadloss=.230 XHL=1.803 emerghkva=28
New Transformer.4037849E phases=3 wdg=1 bus=4037849E_07570.1.2.3 conn=wye kv=12.00 kVA=25 wdg=2 bus=X_4037849E_T_07570.1.2.3 kv=0.48 kVA=25 %loadloss=0.7639 %noloadloss=.0851 XHL=2.1 emerghkva=35
New Transformer.4067277E phases=3 wdg=1 bus=4067277E_07570.1.2.3 conn=wye kv=12.00 kVA=75 wdg=2 bus=X_4067277E_T_07570.1.2.3 kv=0.48 kVA=75 %loadloss=0.749 %noloadloss=.171 XHL=1.773 emerghkva=105
New Transformer.4067585E phases=3 wdg=1 bus=4067585E_07570.1.2.3 conn=wye kv=12.00 kVA=45 wdg=2 bus=X_4067585E_T_07570.1.2.3 kv=0.48 kVA=45 %loadloss=0.811 %noloadloss=.184 XHL=1.765 emerghkva=63
New Transformer.4075713E phases=3 wdg=1 bus=4075713E_07570.1.2.3 conn=wye kv=12.00 kVA=20 wdg=2 bus=X_4075713E_T_07570.1.2.3 kv=0.48 kVA=20 %loadloss=1.008 %noloadloss=.230 XHL=1.803 emerghkva=28
New Transformer.409265E phases=3 wdg=1 bus=409265E_07570.1.2.3 conn=wye kv=12.00 kVA=30 wdg=2 bus=X_409265E_T_07570.1.2.3 kv=0.48 kVA=30 %loadloss=0.7221 %noloadloss=.2423 XHL=1.5158 emerghkva=42
New Transformer.4097786E phases=3 wdg=1 bus=4097786E_07570.1.2.3 conn=wye kv=12.00 kVA=75 wdg=2 bus=X_4097786E_T_07570.1.2.3 kv=0.48 kVA=75 %loadloss=0.749 %noloadloss=.171 XHL=1.773 emerghkva=105
New Transformer.4099096E phases=3 wdg=1 bus=4099096E_07570.1.2.3 conn=wye kv=12.00 kVA=30 wdg=2 bus=X_4099096E_T_07570.1.2.3 kv=0.48 kVA=30 %loadloss=0.7221 %noloadloss=.2423 XHL=1.5158 emerghkva=42
New Transformer.4099100E_07570$4099100E_T_0757-1 phases=3 wdg=1 bus=4099100E_07570.1.2.3 conn=wye kv=12.00 kVA=50 wdg=2 bus=X_4099100E_T_07570.1.2.3 kv=0.416 kVA=50 %loadloss=0.7380 %noloadloss=.1987 XHL=1.7532 emerghkva=70
New Transformer.4099194E phases=3 wdg=1 bus=4099194E_07570.1.2.3 conn=wye kv=12.00 kVA=75 wdg=2 bus=X_4099194E_T_07570.1.2.3 kv=0.48 kVA=75 %loadloss=0.749 %noloadloss=.171 XHL=1.773 emerghkva=105
New Transformer.4130912E phases=3 wdg=1 bus=4130912E_07570.1.2.3 conn=wye kv=12.00 kVA=30 wdg=2 bus=X_4130912E_T_07570.1.2.3 kv=0.48 kVA=30 %loadloss=0.831 %noloadloss=.219 XHL=1.686 emerghkva=42
New Transformer.4130913E phases=3 wdg=1 bus=4130913E_07570.1.2.3 conn=wye kv=12.00 kVA=112 wdg=2 bus=X_4130913E_T_07570.1.2.3 kv=0.48 kVA=112 %loadloss=0.6991 %noloadloss=.2298 XHL=3 emerghkva=156.8
New Transformer.4167349E phases=3 wdg=1 bus=4167349E_07570.1.2.3 conn=wye kv=12.00 kVA=25 wdg=2 bus=X_4167349E_T_07570.1.2.3 kv=0.48 kVA=25 %loadloss=1.008 %noloadloss=.230 XHL=1.803 emerghkva=35
New Transformer.4180602E phases=3 wdg=1 bus=4180602E_07570.1.2.3 conn=wye kv=12.00 kVA=20 wdg=2 bus=X_4180602E_T_07570.1.2.3 kv=0.48 kVA=20 %loadloss=1.008 %noloadloss=.230 XHL=1.803 emerghkva=28
New Transformer.4210436E phases=3 wdg=1 bus=4210436E_07570.1.2.3 conn=wye kv=12.00 kVA=45 wdg=2 bus=X_4210436E_T_07570.1.2.3 kv=0.48 kVA=45 %loadloss=0.7380 %noloadloss=.1987 XHL=1.7532 emerghkva=63
New Transformer.4214587E phases=3 wdg=1 bus=4214587E_07570.1.2.3 conn=wye kv=12.00 kVA=25 wdg=2 bus=X_4214587E_T_07570.1.2.3 kv=0.48 kVA=25 %loadloss=1.008 %noloadloss=.230 XHL=1.803 emerghkva=35
New Transformer.4214689E phases=3 wdg=1 bus=4214689E_07570.1.2.3 conn=wye kv=12.00 kVA=25 wdg=2 bus=X_4214689E_T_07570.1.2.3 kv=0.48 kVA=25 %loadloss=1.008 %noloadloss=.230 XHL=1.803 emerghkva=35
New Transformer.4214799E phases=3 wdg=1 bus=4214799E_07570.1.2.3 conn=wye kv=12.00 kVA=75 wdg=2 bus=X_4214799E_T_07570.1.2.3 kv=0.48 kVA=75 %loadloss=0.749 %noloadloss=.171 XHL=1.773 emerghkva=105
New Transformer.4226560E phases=3 wdg=1 bus=4226560E_07570.1.2.3 conn=wye kv=12.00 kVA=35 wdg=2 bus=X_4226560E_T_07570.1.2.3 kv=0.48 kVA=35 %loadloss=0.7221 %noloadloss=.2423 XHL=1.5158 emerghkva=49
New Transformer.4227069E_07570$4227069E_T_0757-1 phases=3 wdg=1 bus=4227069E_07570.1.2.3 conn=wye kv=12.00 kVA=75 wdg=2 bus=X_4227069E_T_07570.1.2.3 kv=0.416 kVA=75 %loadloss=0.749 %noloadloss=.171 XHL=1.773 emerghkva=105
New Transformer.4251734E phases=3 wdg=1 bus=4251734E_07570.1.2.3 conn=wye kv=12.00 kVA=20 wdg=2 bus=X_4251734E_T_07570.1.2.3 kv=0.48 kVA=20 %loadloss=0.7639 %noloadloss=.0851 XHL=2.1 emerghkva=28
New Transformer.4252648E phases=3 wdg=1 bus=4252648E_07570.1.2.3 conn=wye kv=12.00 kVA=45 wdg=2 bus=X_4252648E_T_07570.1.2.3 kv=0.48 kVA=45 %loadloss=0.811 %noloadloss=.184 XHL=1.765 emerghkva=63
New Transformer.4274192E phases=3 wdg=1 bus=4274192E_07570.1.2.3 conn=wye kv=12.00 kVA=75 wdg=2 bus=X_4274192E_T_07570.1.2.3 kv=0.48 kVA=75 %loadloss=0.7578 %noloadloss=.1348 XHL=2.41 emerghkva=105
New Transformer.4274405E phases=3 wdg=1 bus=4274405E_07570.1.2.3 conn=wye kv=12.00 kVA=112 wdg=2 bus=X_4274405E_T_07570.1.2.3 kv=0.48 kVA=112 %loadloss=0.6991 %noloadloss=.2298 XHL=3 emerghkva=156.8
New Transformer.4276440E_07570$4276440E_T_0757-1 phases=3 wdg=1 bus=4276440E_07570.1.2.3 conn=wye kv=12.00 kVA=50 wdg=2 bus=X_4276440E_T_07570.1.2.3 kv=0.416 kVA=50 %loadloss=0.7380 %noloadloss=.1987 XHL=1.7532 emerghkva=70
New Transformer.4276441E phases=3 wdg=1 bus=4276441E_07570.1.2.3 conn=wye kv=12.00 kVA=38 wdg=2 bus=X_4276441E_T_07570.1.2.3 kv=0.48 kVA=38 %loadloss=0.7221 %noloadloss=.2423 XHL=1.5158 emerghkva=53.2
New Transformer.4276446E phases=3 wdg=1 bus=4276446E_07570.1.2.3 conn=wye kv=12.00 kVA=50 wdg=2 bus=X_4276446E_T_07570.1.2.3 kv=0.48 kVA=50 %loadloss=0.7380 %noloadloss=.1987 XHL=1.7532 emerghkva=70
New Transformer.4289368E_07570$4289368E_T_0757-1 phases=3 wdg=1 bus=4289368E_07570.1.2.3 conn=wye kv=12.00 kVA=20 wdg=2 bus=X_4289368E_T_07570.1.2.3 kv=0.416 kVA=20 %loadloss=1.008 %noloadloss=.230 XHL=1.803 emerghkva=28
New Transformer.4289382E phases=3 wdg=1 bus=4289382E_07570.1.2.3 conn=wye kv=12.00 kVA=15 wdg=2 bus=X_4289382E_T_07570.1.2.3 kv=0.48 kVA=15 %loadloss=0.7639 %noloadloss=.0851 XHL=2.1 emerghkva=21
New Transformer.4296072E phases=3 wdg=1 bus=4296072E_07570.1.2.3 conn=wye kv=12.00 kVA=68 wdg=2 bus=X_4296072E_T_07570.1.2.3 kv=0.48 kVA=68 %loadloss=0.749 %noloadloss=.171 XHL=1.773 emerghkva=95.2
New Transformer.4316552ET phases=3 wdg=1 bus=4316552ET_07570.1.2.3 conn=wye kv=12.00 kVA=112 wdg=2 bus=X_4316552ET_T_07570.1.2.3 kv=0.48 kVA=112 %loadloss=0.6991 %noloadloss=.2298 XHL=3 emerghkva=156.8
!New Transformer.4335665E_07570$4335665E_T_0757-1 phases=3 wdg=1 bus=4335665E_07570.1.2.3 conn=wye kv=12.00 kVA=0 wdg=2 bus=X_4335665E_T_07570.1.2.3 kv=0.416 kVA=0 %loadloss=1.022 %noloadloss=.3221 XHL=1.707 emerghkva=0
New Transformer.4340701E_07570$4340701E_T_0757-1 phases=3 wdg=1 bus=4340701E_07570.1.2.3 conn=wye kv=12.00 kVA=20 wdg=2 bus=X_4340701E_T_07570.1.2.3 kv=0.416 kVA=20 %loadloss=0.7639 %noloadloss=.0851 XHL=2.1 emerghkva=28
New Transformer.4342612E phases=3 wdg=1 bus=4342612E_07570.1.2.3 conn=wye kv=12.00 kVA=25 wdg=2 bus=X_4342612E_T_07570.1.2.3 kv=0.48 kVA=25 %loadloss=1.008 %noloadloss=.230 XHL=1.803 emerghkva=35
New Transformer.4354639E_07570$4354639E_T_0757-1 phases=3 wdg=1 bus=4354639E_07570.1.2.3 conn=wye kv=12.00 kVA=75 wdg=2 bus=X_4354639E_T_07570.1.2.3 kv=0.416 kVA=75 %loadloss=0.749 %noloadloss=.171 XHL=1.773 emerghkva=105
New Transformer.4354747E phases=3 wdg=1 bus=4354747E_07570.1.2.3 conn=wye kv=12.00 kVA=75 wdg=2 bus=X_4354747E_T_07570.1.2.3 kv=0.48 kVA=75 %loadloss=0.749 %noloadloss=.171 XHL=1.773 emerghkva=105
New Transformer.4354805E_07570$4354805E_T_0757-1 phases=3 wdg=1 bus=4354805E_07570.1.2.3 conn=wye kv=12.00 kVA=20 wdg=2 bus=X_4354805E_T_07570.1.2.3 kv=0.416 kVA=20 %loadloss=1.008 %noloadloss=.230 XHL=1.803 emerghkva=28
New Transformer.4362819E phases=3 wdg=1 bus=4362819E_07570.1.2.3 conn=wye kv=12.00 kVA=35 wdg=2 bus=X_4362819E_T_07570.1.2.3 kv=0.48 kVA=35 %loadloss=0.7221 %noloadloss=.2423 XHL=1.5158 emerghkva=49
New Transformer.4362820E phases=3 wdg=1 bus=4362820E_07570.1.2.3 conn=wye kv=12.00 kVA=38 wdg=2 bus=X_4362820E_T_07570.1.2.3 kv=0.48 kVA=38 %loadloss=0.7221 %noloadloss=.2423 XHL=1.5158 emerghkva=53.2
New Transformer.4362821E phases=3 wdg=1 bus=4362821E_07570.1.2.3 conn=wye kv=12.00 kVA=30 wdg=2 bus=X_4362821E_T_07570.1.2.3 kv=0.48 kVA=30 %loadloss=0.831 %noloadloss=.219 XHL=1.686 emerghkva=42
New Transformer.4362828E phases=3 wdg=1 bus=4362828E_07570.1.2.3 conn=wye kv=12.00 kVA=25 wdg=2 bus=X_4362828E_T_07570.1.2.3 kv=0.48 kVA=25 %loadloss=1.008 %noloadloss=.230 XHL=1.803 emerghkva=35
New Transformer.4362829E phases=3 wdg=1 bus=4362829E_07570.1.2.3 conn=wye kv=12.00 kVA=75 wdg=2 bus=X_4362829E_T_07570.1.2.3 kv=0.48 kVA=75 %loadloss=0.749 %noloadloss=.171 XHL=1.773 emerghkva=105
New Transformer.4362834E phases=3 wdg=1 bus=4362834E_07570.1.2.3 conn=wye kv=12.00 kVA=75 wdg=2 bus=X_4362834E_T_07570.1.2.3 kv=0.48 kVA=75 %loadloss=0.749 %noloadloss=.171 XHL=1.773 emerghkva=105
New Transformer.4362842E phases=1 wdg=1 bus=4362842E_07570.1.3 conn=delta kv=12.00 kVA=10 wdg=2 bus=X_4362842E_T_07570.3 kv=0.24 kVA=10 %loadloss=1.153 %noloadloss=.318 XHL=1.888 emerghkva=14
New Transformer.4363394E_07570$4363394E_T_0757-1 phases=3 wdg=1 bus=4363394E_07570.1.2.3 conn=wye kv=12.00 kVA=50 wdg=2 bus=X_4363394E_T_07570.1.2.3 kv=0.416 kVA=50 %loadloss=0.811 %noloadloss=.184 XHL=1.765 emerghkva=70
New Transformer.4363729E_07570$4363729E_T_0757-1 phases=3 wdg=1 bus=4363729E_07570.1.2.3 conn=wye kv=12.00 kVA=30 wdg=2 bus=X_4363729E_T_07570.1.2.3 kv=0.416 kVA=30 %loadloss=0.7221 %noloadloss=.2423 XHL=1.5158 emerghkva=42
New Transformer.4364055E_07570$4364055E_T_0757-1 phases=3 wdg=1 bus=4364055E_07570.1.2.3 conn=wye kv=12.00 kVA=50 wdg=2 bus=X_4364055E_T_07570.1.2.3 kv=0.416 kVA=50 %loadloss=0.811 %noloadloss=.184 XHL=1.765 emerghkva=70
New Transformer.4368157E phases=3 wdg=1 bus=4368157E_07570.1.2.3 conn=wye kv=12.00 kVA=15 wdg=2 bus=X_4368157E_T_07570.1.2.3 kv=0.48 kVA=15 %loadloss=1.008 %noloadloss=.230 XHL=1.803 emerghkva=21
New Transformer.4368160E phases=3 wdg=1 bus=4368160E_07570.1.2.3 conn=wye kv=12.00 kVA=45 wdg=2 bus=X_4368160E_T_07570.1.2.3 kv=0.48 kVA=45 %loadloss=0.7380 %noloadloss=.1987 XHL=1.7532 emerghkva=63
New Transformer.4368161E phases=3 wdg=1 bus=4368161E_07570.1.2.3 conn=wye kv=12.00 kVA=25 wdg=2 bus=X_4368161E_T_07570.1.2.3 kv=0.48 kVA=25 %loadloss=0.7639 %noloadloss=.0851 XHL=2.1 emerghkva=35
New Transformer.4368171E phases=3 wdg=1 bus=4368171E_07570.1.2.3 conn=wye kv=12.00 kVA=10 wdg=2 bus=X_4368171E_T_07570.1.2.3 kv=0.48 kVA=10 %loadloss=1.022 %noloadloss=.3221 XHL=1.707 emerghkva=14
New Transformer.4368659E phases=3 wdg=1 bus=4368659E_07570.1.2.3 conn=wye kv=12.00 kVA=75 wdg=2 bus=X_4368659E_T_07570.1.2.3 kv=0.48 kVA=75 %loadloss=0.749 %noloadloss=.171 XHL=1.773 emerghkva=105
New Transformer.4368660E phases=3 wdg=1 bus=4368660E_07570.1.2.3 conn=wye kv=12.00 kVA=75 wdg=2 bus=X_4368660E_T_07570.1.2.3 kv=0.48 kVA=75 %loadloss=0.749 %noloadloss=.171 XHL=1.773 emerghkva=105
New Transformer.4368661E phases=3 wdg=1 bus=4368661E_07570.1.2.3 conn=wye kv=12.00 kVA=75 wdg=2 bus=X_4368661E_T_07570.1.2.3 kv=0.48 kVA=75 %loadloss=0.749 %noloadloss=.171 XHL=1.773 emerghkva=105
New Transformer.4368663E phases=3 wdg=1 bus=4368663E_07570.1.2.3 conn=wye kv=12.00 kVA=25 wdg=2 bus=X_4368663E_T_07570.1.2.3 kv=0.48 kVA=25 %loadloss=1.008 %noloadloss=.230 XHL=1.803 emerghkva=35
New Transformer.4368667E phases=3 wdg=1 bus=4368667E_07570_1.1.2.3 conn=wye kv=12.00 kVA=125 wdg=2 bus=X_4368667E_T_07570.1.2.3 kv=0.48 kVA=125 %loadloss=0.6991 %noloadloss=.2298 XHL=3 emerghkva=175
New Transformer.4368668E phases=3 wdg=1 bus=4368668E_07570.1.2.3 conn=wye kv=12.00 kVA=25 wdg=2 bus=X_4368668E_T_07570.1.2.3 kv=0.48 kVA=25 %loadloss=1.008 %noloadloss=.230 XHL=1.803 emerghkva=35
...