examples/Custom_controls_example/DSSfiles/Green_dss/newsecondaries.dss
New Line.SL_4214689E-ABC-1_1 phases=3 bus1=X_4214689E_T_07570.1.2.3 bus2=X_4214689E_T_07570_SLD_1.1.2.3 linecode=3ph_h-2/0_acsr2/0_acsr2/0_acsr2_acsr length=125 units=ft
New Line.SL_4214689E-ABC-1_2 phases=3 bus1=X_4214689E_T_07570.1.2.3 bus2=X_4214689E_T_07570_SLD_2.1.2.3 linecode=3ph_h-2/0_acsr2/0_acsr2/0_acsr2_acsr length=125 units=ft
New Line.SL_4214689E-ABC-1_3 phases=3 bus1=X_4214689E_T_07570.1.2.3 bus2=X_4214689E_T_07570_SLD_3.1.2.3 linecode=3ph_h-2/0_acsr2/0_acsr2/0_acsr2_acsr length=125 units=ft
New Line.SL_P5504308-C-1_1 phases=1 bus1=X_P5504308_T_07570.3 bus2=X_P5504308_T_07570_SLD_1.3 linecode=1/0_AL_TRIPLEX_1PH length=125 units=ft
New Line.SL_P5504308-C-1_2 phases=1 bus1=X_P5504308_T_07570.3 bus2=X_P5504308_T_07570_SLD_2.3 linecode=1/0_AL_TRIPLEX_1PH length=125 units=ft
New Line.SL_P5504308-C-1_3 phases=1 bus1=X_P5504308_T_07570.3 bus2=X_P5504308_T_07570_SLD_3.3 linecode=1/0_AL_TRIPLEX_1PH length=125 units=ft
New Line.SL_4671820E-ABC-1_1 phases=3 bus1=X_4671820E_T_07570.1.2.3 bus2=X_4671820E_T_07570_SLD_1.1.2.3 linecode=3ph_h-2/0_acsr2/0_acsr2/0_acsr2_acsr length=125 units=ft
New Line.SL_4671820E-ABC-1_2 phases=3 bus1=X_4671820E_T_07570.1.2.3 bus2=X_4671820E_T_07570_SLD_2.1.2.3 linecode=3ph_h-2/0_acsr2/0_acsr2/0_acsr2_acsr length=125 units=ft
New Line.SL_4671820E-ABC-1_3 phases=3 bus1=X_4671820E_T_07570.1.2.3 bus2=X_4671820E_T_07570_SLD_3.1.2.3 linecode=3ph_h-2/0_acsr2/0_acsr2/0_acsr2_acsr length=125 units=ft
New Line.SL_4067277E-ABC-1_1 phases=3 bus1=X_4067277E_T_07570.1.2.3 bus2=X_4067277E_T_07570_SLD_1.1.2.3 linecode=3ph_h-397_acsr397_acsr397_acsr397_acsr length=125 units=ft
New Line.SL_4553233E-ABC-1_1 phases=3 bus1=X_4553233E_T_07570.1.2.3 bus2=X_4553233E_T_07570_SLD_1.1.2.3 linecode=3ph_h-2/0_acsr2/0_acsr2/0_acsr2_acsr length=125 units=ft
New Line.SL_4553233E-ABC-1_2 phases=3 bus1=X_4553233E_T_07570.1.2.3 bus2=X_4553233E_T_07570_SLD_2.1.2.3 linecode=3ph_h-2/0_acsr2/0_acsr2/0_acsr2_acsr length=125 units=ft
New Line.SL_4130912E-ABC-1_1 phases=3 bus1=X_4130912E_T_07570.1.2.3 bus2=X_4130912E_T_07570_SLD_1.1.2.3 linecode=3ph_h-2/0_acsr2/0_acsr2/0_acsr2_acsr length=125 units=ft
New Line.SL_4130912E-ABC-1_2 phases=3 bus1=X_4130912E_T_07570.1.2.3 bus2=X_4130912E_T_07570_SLD_2.1.2.3 linecode=3ph_h-2/0_acsr2/0_acsr2/0_acsr2_acsr length=125 units=ft
New Line.SL_4130912E-ABC-1_3 phases=3 bus1=X_4130912E_T_07570.1.2.3 bus2=X_4130912E_T_07570_SLD_3.1.2.3 linecode=3ph_h-2/0_acsr2/0_acsr2/0_acsr2_acsr length=125 units=ft
New Line.SL_4362834E-ABC-1_1 phases=3 bus1=X_4362834E_T_07570.1.2.3 bus2=X_4362834E_T_07570_SLD_1.1.2.3 linecode=3ph_h-397_acsr397_acsr397_acsr397_acsr length=125 units=ft
New Line.SL_4362828E-ABC-1_1 phases=3 bus1=X_4362828E_T_07570.1.2.3 bus2=X_4362828E_T_07570_SLD_1.1.2.3 linecode=3ph_h-2/0_acsr2/0_acsr2/0_acsr2_acsr length=125 units=ft
New Line.SL_4362828E-ABC-1_2 phases=3 bus1=X_4362828E_T_07570.1.2.3 bus2=X_4362828E_T_07570_SLD_2.1.2.3 linecode=3ph_h-2/0_acsr2/0_acsr2/0_acsr2_acsr length=125 units=ft
New Line.SL_4362828E-ABC-1_3 phases=3 bus1=X_4362828E_T_07570.1.2.3 bus2=X_4362828E_T_07570_SLD_3.1.2.3 linecode=3ph_h-2/0_acsr2/0_acsr2/0_acsr2_acsr length=125 units=ft
New Line.SL_2331624E-ABC-1_1 phases=3 bus1=X_2331624E_T_07570.1.2.3 bus2=X_2331624E_T_07570_SLD_1.1.2.3 linecode=3ph_h-397_acsr397_acsr397_acsr397_acsr length=125 units=ft
New Line.SL_2212593E-ABC-1_1 phases=3 bus1=X_2212593E_T_07570.1.2.3 bus2=X_2212593E_T_07570_SLD_1.1.2.3 linecode=3ph_h-397_acsr397_acsr397_acsr397_acsr length=125 units=ft
New Line.SL_2212593E-ABC-1_2 phases=3 bus1=X_2212593E_T_07570.1.2.3 bus2=X_2212593E_T_07570_SLD_2.1.2.3 linecode=3ph_h-397_acsr397_acsr397_acsr397_acsr length=125 units=ft
New Line.SL_1507174E-ABC-1_1 phases=3 bus1=X_1507174E_T_07570.1.2.3 bus2=X_1507174E_T_07570_SLD_1.1.2.3 linecode=3ph_h-397_acsr397_acsr397_acsr397_acsr length=125 units=ft
New Line.SL_1475350E-ABC-1_1 phases=3 bus1=X_1475350E_T_07570.1.2.3 bus2=X_1475350E_T_07570_SLD_1.1.2.3 linecode=3ph_h-2/0_acsr2/0_acsr2/0_acsr2_acsr length=125 units=ft
New Line.SL_1475350E-ABC-1_2 phases=3 bus1=X_1475350E_T_07570.1.2.3 bus2=X_1475350E_T_07570_SLD_2.1.2.3 linecode=3ph_h-2/0_acsr2/0_acsr2/0_acsr2_acsr length=125 units=ft
New Line.SL_1475350E-ABC-1_3 phases=3 bus1=X_1475350E_T_07570.1.2.3 bus2=X_1475350E_T_07570_SLD_3.1.2.3 linecode=3ph_h-2/0_acsr2/0_acsr2/0_acsr2_acsr length=125 units=ft
New Line.SL_4700177E-ABC-1_1 phases=3 bus1=X_4700177E_T_07570.1.2.3 bus2=X_4700177E_T_07570_SLD_1.1.2.3 linecode=3ph_h-397_acsr397_acsr397_acsr397_acsr length=125 units=ft
New Line.SL_4700177E-ABC-1_2 phases=3 bus1=X_4700177E_T_07570.1.2.3 bus2=X_4700177E_T_07570_SLD_2.1.2.3 linecode=3ph_h-397_acsr397_acsr397_acsr397_acsr length=125 units=ft
New Line.SL_4784743E-ABC-1_1 phases=3 bus1=X_4784743E_T_07570.1.2.3 bus2=X_4784743E_T_07570_SLD_1.1.2.3 linecode=3ph_h-397_acsr397_acsr397_acsr397_acsr length=125 units=ft
...